
---------- Begin Simulation Statistics ----------
final_tick                               371605492000                       # Number of ticks from beginning of simulation (restored from checkpoints and never reset)
host_inst_rate                                 206058                       # Simulator instruction rate (inst/s)
host_mem_usage                                 662308                       # Number of bytes of host memory used
host_op_rate                                   379597                       # Simulator op (including micro ops) rate (op/s)
host_seconds                                   485.30                       # Real time elapsed on the host
host_tick_rate                              765721413                       # Simulator tick rate (ticks/s)
sim_freq                                 1000000000000                       # Frequency of simulated ticks
sim_insts                                   100000000                       # Number of instructions simulated
sim_ops                                     184218644                       # Number of ops (including micro ops) simulated
sim_seconds                                  0.371605                       # Number of seconds simulated
sim_ticks                                371605492000                       # Number of ticks simulated
system.cpu.committedInsts                   100000000                       # Number of instructions committed
system.cpu.committedOps                     184218644                       # Number of ops (including micro ops) committed
system.cpu.cpi                               3.716055                       # CPI: cycles per instruction
system.cpu.discardedOps                          4373                       # Number of ops (including micro ops) which were discarded before commit
system.cpu.idleCycles                       153868894                       # Total number of cycles that the object has spent stopped
system.cpu.ipc                               0.269103                       # IPC: instructions per cycle
system.cpu.numCycles                        371605492                       # number of cpu cycles simulated
system.cpu.numFetchSuspends                         0                       # Number of times Execute suspended instruction fetching
system.cpu.numWorkItemsCompleted                    0                       # number of work items this cpu completed
system.cpu.numWorkItemsStarted                      0                       # number of work items this cpu started
system.cpu.op_class_0::No_OpClass                   0      0.00%      0.00% # Class of committed instruction
system.cpu.op_class_0::IntAlu                97640476     53.00%     53.00% # Class of committed instruction
system.cpu.op_class_0::IntMult                 114699      0.06%     53.06% # Class of committed instruction
system.cpu.op_class_0::IntDiv                       0      0.00%     53.06% # Class of committed instruction
system.cpu.op_class_0::FloatAdd                     0      0.00%     53.06% # Class of committed instruction
system.cpu.op_class_0::FloatCmp                     0      0.00%     53.06% # Class of committed instruction
system.cpu.op_class_0::FloatCvt                     0      0.00%     53.06% # Class of committed instruction
system.cpu.op_class_0::FloatMult                    0      0.00%     53.06% # Class of committed instruction
system.cpu.op_class_0::FloatMultAcc                 0      0.00%     53.06% # Class of committed instruction
system.cpu.op_class_0::FloatDiv                     0      0.00%     53.06% # Class of committed instruction
system.cpu.op_class_0::FloatMisc                    0      0.00%     53.06% # Class of committed instruction
system.cpu.op_class_0::FloatSqrt                    0      0.00%     53.06% # Class of committed instruction
system.cpu.op_class_0::SimdAdd                      8      0.00%     53.06% # Class of committed instruction
system.cpu.op_class_0::SimdAddAcc                   0      0.00%     53.06% # Class of committed instruction
system.cpu.op_class_0::SimdAlu                      8      0.00%     53.06% # Class of committed instruction
system.cpu.op_class_0::SimdCmp                      6      0.00%     53.06% # Class of committed instruction
system.cpu.op_class_0::SimdCvt                      0      0.00%     53.06% # Class of committed instruction
system.cpu.op_class_0::SimdMisc                     1      0.00%     53.06% # Class of committed instruction
system.cpu.op_class_0::SimdMult                     0      0.00%     53.06% # Class of committed instruction
system.cpu.op_class_0::SimdMultAcc                  0      0.00%     53.06% # Class of committed instruction
system.cpu.op_class_0::SimdShift                    0      0.00%     53.06% # Class of committed instruction
system.cpu.op_class_0::SimdShiftAcc                 0      0.00%     53.06% # Class of committed instruction
system.cpu.op_class_0::SimdDiv                      0      0.00%     53.06% # Class of committed instruction
system.cpu.op_class_0::SimdSqrt                     0      0.00%     53.06% # Class of committed instruction
system.cpu.op_class_0::SimdFloatAdd                 0      0.00%     53.06% # Class of committed instruction
system.cpu.op_class_0::SimdFloatAlu                 0      0.00%     53.06% # Class of committed instruction
system.cpu.op_class_0::SimdFloatCmp                 0      0.00%     53.06% # Class of committed instruction
system.cpu.op_class_0::SimdFloatCvt                 0      0.00%     53.06% # Class of committed instruction
system.cpu.op_class_0::SimdFloatDiv                 0      0.00%     53.06% # Class of committed instruction
system.cpu.op_class_0::SimdFloatMisc               23      0.00%     53.06% # Class of committed instruction
system.cpu.op_class_0::SimdFloatMult                0      0.00%     53.06% # Class of committed instruction
system.cpu.op_class_0::SimdFloatMultAcc             0      0.00%     53.06% # Class of committed instruction
system.cpu.op_class_0::SimdFloatSqrt                0      0.00%     53.06% # Class of committed instruction
system.cpu.op_class_0::SimdReduceAdd                0      0.00%     53.06% # Class of committed instruction
system.cpu.op_class_0::SimdReduceAlu                0      0.00%     53.06% # Class of committed instruction
system.cpu.op_class_0::SimdReduceCmp                0      0.00%     53.06% # Class of committed instruction
system.cpu.op_class_0::SimdFloatReduceAdd            0      0.00%     53.06% # Class of committed instruction
system.cpu.op_class_0::SimdFloatReduceCmp            0      0.00%     53.06% # Class of committed instruction
system.cpu.op_class_0::SimdAes                      0      0.00%     53.06% # Class of committed instruction
system.cpu.op_class_0::SimdAesMix                   0      0.00%     53.06% # Class of committed instruction
system.cpu.op_class_0::SimdSha1Hash                 0      0.00%     53.06% # Class of committed instruction
system.cpu.op_class_0::SimdSha1Hash2                0      0.00%     53.06% # Class of committed instruction
system.cpu.op_class_0::SimdSha256Hash               0      0.00%     53.06% # Class of committed instruction
system.cpu.op_class_0::SimdSha256Hash2              0      0.00%     53.06% # Class of committed instruction
system.cpu.op_class_0::SimdShaSigma2                0      0.00%     53.06% # Class of committed instruction
system.cpu.op_class_0::SimdShaSigma3                0      0.00%     53.06% # Class of committed instruction
system.cpu.op_class_0::SimdPredAlu                  0      0.00%     53.06% # Class of committed instruction
system.cpu.op_class_0::MemRead                2082689      1.13%     54.20% # Class of committed instruction
system.cpu.op_class_0::MemWrite              84380734     45.80%    100.00% # Class of committed instruction
system.cpu.op_class_0::FloatMemRead                 0      0.00%    100.00% # Class of committed instruction
system.cpu.op_class_0::FloatMemWrite                0      0.00%    100.00% # Class of committed instruction
system.cpu.op_class_0::IprAccess                    0      0.00%    100.00% # Class of committed instruction
system.cpu.op_class_0::InstPrefetch                 0      0.00%    100.00% # Class of committed instruction
system.cpu.op_class_0::total                184218644                       # Class of committed instruction
system.cpu.tickCycles                       217736598                       # Number of cycles that the object actually ticked
system.cpu.workload.numSyscalls                    18                       # Number of system calls
system.membus.snoop_filter.hit_multi_requests            0                       # Number of requests hitting in the snoop filter with multiple (>1) holders of the requested data.
system.membus.snoop_filter.hit_multi_snoops            0                       # Number of snoops hitting in the snoop filter with multiple (>1) holders of the requested data.
system.membus.snoop_filter.hit_single_requests      1314067                       # Number of requests hitting in the snoop filter with a single holder of the requested data.
system.membus.snoop_filter.hit_single_snoops            0                       # Number of snoops hitting in the snoop filter with a single holder of the requested data.
system.membus.snoop_filter.tot_requests       2630354                       # Total number of requests made to the snoop filter.
system.membus.snoop_filter.tot_snoops               0                       # Total number of snoops made to the snoop filter.
system.tol2bus.snoop_filter.hit_multi_requests           53                       # Number of requests hitting in the snoop filter with multiple (>1) holders of the requested data.
system.tol2bus.snoop_filter.hit_multi_snoops            9                       # Number of snoops hitting in the snoop filter with multiple (>1) holders of the requested data.
system.tol2bus.snoop_filter.hit_single_requests      1315979                       # Number of requests hitting in the snoop filter with a single holder of the requested data.
system.tol2bus.snoop_filter.hit_single_snoops          459                       # Number of snoops hitting in the snoop filter with a single holder of the requested data.
system.tol2bus.snoop_filter.tot_requests      2632398                       # Total number of requests made to the snoop filter.
system.tol2bus.snoop_filter.tot_snoops            468                       # Total number of snoops made to the snoop filter.
system.clk_domain.clock                          1000                       # Clock period in ticks
system.cpu.branchPred.lookups                10658327                       # Number of BP lookups
system.cpu.branchPred.condPredicted          10650056                       # Number of conditional branches predicted
system.cpu.branchPred.condIncorrect              1445                       # Number of conditional branches incorrect
system.cpu.branchPred.BTBLookups             10650235                       # Number of BTB lookups
system.cpu.branchPred.BTBHits                10648832                       # Number of BTB hits
system.cpu.branchPred.BTBHitPct             99.986827                       # BTB Hit Percentage
system.cpu.branchPred.RASUsed                    2719                       # Number of times the RAS was used to get a target.
system.cpu.branchPred.RASIncorrect                  1                       # Number of incorrect RAS predictions.
system.cpu.branchPred.indirectLookups             209                       # Number of indirect predictor lookups.
system.cpu.branchPred.indirectHits                 23                       # Number of indirect target hits.
system.cpu.branchPred.indirectMisses              186                       # Number of indirect misses.
system.cpu.branchPred.indirectMispredicted          104                       # Number of mispredicted indirect branches.
system.cpu.dcache.demand_hits::.cpu.data     83749255                       # number of demand (read+write) hits
system.cpu.dcache.demand_hits::total         83749255                       # number of demand (read+write) hits
system.cpu.dcache.overall_hits::.cpu.data     83749302                       # number of overall hits
system.cpu.dcache.overall_hits::total        83749302                       # number of overall hits
system.cpu.dcache.demand_misses::.cpu.data      2631207                       # number of demand (read+write) misses
system.cpu.dcache.demand_misses::total        2631207                       # number of demand (read+write) misses
system.cpu.dcache.overall_misses::.cpu.data      2631231                       # number of overall misses
system.cpu.dcache.overall_misses::total       2631231                       # number of overall misses
system.cpu.dcache.demand_miss_latency::.cpu.data 350640565000                       # number of demand (read+write) miss cycles
system.cpu.dcache.demand_miss_latency::total 350640565000                       # number of demand (read+write) miss cycles
system.cpu.dcache.overall_miss_latency::.cpu.data 350640565000                       # number of overall miss cycles
system.cpu.dcache.overall_miss_latency::total 350640565000                       # number of overall miss cycles
system.cpu.dcache.demand_accesses::.cpu.data     86380462                       # number of demand (read+write) accesses
system.cpu.dcache.demand_accesses::total     86380462                       # number of demand (read+write) accesses
system.cpu.dcache.overall_accesses::.cpu.data     86380533                       # number of overall (read+write) accesses
system.cpu.dcache.overall_accesses::total     86380533                       # number of overall (read+write) accesses
system.cpu.dcache.demand_miss_rate::.cpu.data     0.030461                       # miss rate for demand accesses
system.cpu.dcache.demand_miss_rate::total     0.030461                       # miss rate for demand accesses
system.cpu.dcache.overall_miss_rate::.cpu.data     0.030461                       # miss rate for overall accesses
system.cpu.dcache.overall_miss_rate::total     0.030461                       # miss rate for overall accesses
system.cpu.dcache.demand_avg_miss_latency::.cpu.data 133262.249986                       # average overall miss latency
system.cpu.dcache.demand_avg_miss_latency::total 133262.249986                       # average overall miss latency
system.cpu.dcache.overall_avg_miss_latency::.cpu.data 133261.034474                       # average overall miss latency
system.cpu.dcache.overall_avg_miss_latency::total 133261.034474                       # average overall miss latency
system.cpu.dcache.blocked_cycles::no_mshrs            0                       # number of cycles access was blocked
system.cpu.dcache.blocked_cycles::no_targets            0                       # number of cycles access was blocked
system.cpu.dcache.blocked::no_mshrs                 0                       # number of cycles access was blocked
system.cpu.dcache.blocked::no_targets               0                       # number of cycles access was blocked
system.cpu.dcache.avg_blocked_cycles::no_mshrs          nan                       # average number of cycles each access was blocked
system.cpu.dcache.avg_blocked_cycles::no_targets          nan                       # average number of cycles each access was blocked
system.cpu.dcache.writebacks::.writebacks      1315662                       # number of writebacks
system.cpu.dcache.writebacks::total           1315662                       # number of writebacks
system.cpu.dcache.demand_mshr_hits::.cpu.data      1315135                       # number of demand (read+write) MSHR hits
system.cpu.dcache.demand_mshr_hits::total      1315135                       # number of demand (read+write) MSHR hits
system.cpu.dcache.overall_mshr_hits::.cpu.data      1315135                       # number of overall MSHR hits
system.cpu.dcache.overall_mshr_hits::total      1315135                       # number of overall MSHR hits
system.cpu.dcache.demand_mshr_misses::.cpu.data      1316072                       # number of demand (read+write) MSHR misses
system.cpu.dcache.demand_mshr_misses::total      1316072                       # number of demand (read+write) MSHR misses
system.cpu.dcache.overall_mshr_misses::.cpu.data      1316083                       # number of overall MSHR misses
system.cpu.dcache.overall_mshr_misses::total      1316083                       # number of overall MSHR misses
system.cpu.dcache.demand_mshr_miss_latency::.cpu.data 168147315000                       # number of demand (read+write) MSHR miss cycles
system.cpu.dcache.demand_mshr_miss_latency::total 168147315000                       # number of demand (read+write) MSHR miss cycles
system.cpu.dcache.overall_mshr_miss_latency::.cpu.data 168148687000                       # number of overall MSHR miss cycles
system.cpu.dcache.overall_mshr_miss_latency::total 168148687000                       # number of overall MSHR miss cycles
system.cpu.dcache.demand_mshr_miss_rate::.cpu.data     0.015236                       # mshr miss rate for demand accesses
system.cpu.dcache.demand_mshr_miss_rate::total     0.015236                       # mshr miss rate for demand accesses
system.cpu.dcache.overall_mshr_miss_rate::.cpu.data     0.015236                       # mshr miss rate for overall accesses
system.cpu.dcache.overall_mshr_miss_rate::total     0.015236                       # mshr miss rate for overall accesses
system.cpu.dcache.demand_avg_mshr_miss_latency::.cpu.data 127764.525801                       # average overall mshr miss latency
system.cpu.dcache.demand_avg_mshr_miss_latency::total 127764.525801                       # average overall mshr miss latency
system.cpu.dcache.overall_avg_mshr_miss_latency::.cpu.data 127764.500415                       # average overall mshr miss latency
system.cpu.dcache.overall_avg_mshr_miss_latency::total 127764.500415                       # average overall mshr miss latency
system.cpu.dcache.replacements                1315827                       # number of replacements
system.cpu.dcache.ReadReq_hits::.cpu.data      2043843                       # number of ReadReq hits
system.cpu.dcache.ReadReq_hits::total         2043843                       # number of ReadReq hits
system.cpu.dcache.ReadReq_misses::.cpu.data          201                       # number of ReadReq misses
system.cpu.dcache.ReadReq_misses::total           201                       # number of ReadReq misses
system.cpu.dcache.ReadReq_miss_latency::.cpu.data     23812000                       # number of ReadReq miss cycles
system.cpu.dcache.ReadReq_miss_latency::total     23812000                       # number of ReadReq miss cycles
system.cpu.dcache.ReadReq_accesses::.cpu.data      2044044                       # number of ReadReq accesses(hits+misses)
system.cpu.dcache.ReadReq_accesses::total      2044044                       # number of ReadReq accesses(hits+misses)
system.cpu.dcache.ReadReq_miss_rate::.cpu.data     0.000098                       # miss rate for ReadReq accesses
system.cpu.dcache.ReadReq_miss_rate::total     0.000098                       # miss rate for ReadReq accesses
system.cpu.dcache.ReadReq_avg_miss_latency::.cpu.data 118467.661692                       # average ReadReq miss latency
system.cpu.dcache.ReadReq_avg_miss_latency::total 118467.661692                       # average ReadReq miss latency
system.cpu.dcache.ReadReq_mshr_hits::.cpu.data           19                       # number of ReadReq MSHR hits
system.cpu.dcache.ReadReq_mshr_hits::total           19                       # number of ReadReq MSHR hits
system.cpu.dcache.ReadReq_mshr_misses::.cpu.data          182                       # number of ReadReq MSHR misses
system.cpu.dcache.ReadReq_mshr_misses::total          182                       # number of ReadReq MSHR misses
system.cpu.dcache.ReadReq_mshr_miss_latency::.cpu.data     21301000                       # number of ReadReq MSHR miss cycles
system.cpu.dcache.ReadReq_mshr_miss_latency::total     21301000                       # number of ReadReq MSHR miss cycles
system.cpu.dcache.ReadReq_mshr_miss_rate::.cpu.data     0.000089                       # mshr miss rate for ReadReq accesses
system.cpu.dcache.ReadReq_mshr_miss_rate::total     0.000089                       # mshr miss rate for ReadReq accesses
system.cpu.dcache.ReadReq_avg_mshr_miss_latency::.cpu.data 117038.461538                       # average ReadReq mshr miss latency
system.cpu.dcache.ReadReq_avg_mshr_miss_latency::total 117038.461538                       # average ReadReq mshr miss latency
system.cpu.dcache.WriteReq_hits::.cpu.data     81705412                       # number of WriteReq hits
system.cpu.dcache.WriteReq_hits::total       81705412                       # number of WriteReq hits
system.cpu.dcache.WriteReq_misses::.cpu.data      2631006                       # number of WriteReq misses
system.cpu.dcache.WriteReq_misses::total      2631006                       # number of WriteReq misses
system.cpu.dcache.WriteReq_miss_latency::.cpu.data 350616753000                       # number of WriteReq miss cycles
system.cpu.dcache.WriteReq_miss_latency::total 350616753000                       # number of WriteReq miss cycles
system.cpu.dcache.WriteReq_accesses::.cpu.data     84336418                       # number of WriteReq accesses(hits+misses)
system.cpu.dcache.WriteReq_accesses::total     84336418                       # number of WriteReq accesses(hits+misses)
system.cpu.dcache.WriteReq_miss_rate::.cpu.data     0.031197                       # miss rate for WriteReq accesses
system.cpu.dcache.WriteReq_miss_rate::total     0.031197                       # miss rate for WriteReq accesses
system.cpu.dcache.WriteReq_avg_miss_latency::.cpu.data 133263.380243                       # average WriteReq miss latency
system.cpu.dcache.WriteReq_avg_miss_latency::total 133263.380243                       # average WriteReq miss latency
system.cpu.dcache.WriteReq_mshr_hits::.cpu.data      1315116                       # number of WriteReq MSHR hits
system.cpu.dcache.WriteReq_mshr_hits::total      1315116                       # number of WriteReq MSHR hits
system.cpu.dcache.WriteReq_mshr_misses::.cpu.data      1315890                       # number of WriteReq MSHR misses
system.cpu.dcache.WriteReq_mshr_misses::total      1315890                       # number of WriteReq MSHR misses
system.cpu.dcache.WriteReq_mshr_miss_latency::.cpu.data 168126014000                       # number of WriteReq MSHR miss cycles
system.cpu.dcache.WriteReq_mshr_miss_latency::total 168126014000                       # number of WriteReq MSHR miss cycles
system.cpu.dcache.WriteReq_mshr_miss_rate::.cpu.data     0.015603                       # mshr miss rate for WriteReq accesses
system.cpu.dcache.WriteReq_mshr_miss_rate::total     0.015603                       # mshr miss rate for WriteReq accesses
system.cpu.dcache.WriteReq_avg_mshr_miss_latency::.cpu.data 127766.009317                       # average WriteReq mshr miss latency
system.cpu.dcache.WriteReq_avg_mshr_miss_latency::total 127766.009317                       # average WriteReq mshr miss latency
system.cpu.dcache.SoftPFReq_hits::.cpu.data           47                       # number of SoftPFReq hits
system.cpu.dcache.SoftPFReq_hits::total            47                       # number of SoftPFReq hits
system.cpu.dcache.SoftPFReq_misses::.cpu.data           24                       # number of SoftPFReq misses
system.cpu.dcache.SoftPFReq_misses::total           24                       # number of SoftPFReq misses
system.cpu.dcache.SoftPFReq_accesses::.cpu.data           71                       # number of SoftPFReq accesses(hits+misses)
system.cpu.dcache.SoftPFReq_accesses::total           71                       # number of SoftPFReq accesses(hits+misses)
system.cpu.dcache.SoftPFReq_miss_rate::.cpu.data     0.338028                       # miss rate for SoftPFReq accesses
system.cpu.dcache.SoftPFReq_miss_rate::total     0.338028                       # miss rate for SoftPFReq accesses
system.cpu.dcache.SoftPFReq_mshr_misses::.cpu.data           11                       # number of SoftPFReq MSHR misses
system.cpu.dcache.SoftPFReq_mshr_misses::total           11                       # number of SoftPFReq MSHR misses
system.cpu.dcache.SoftPFReq_mshr_miss_latency::.cpu.data      1372000                       # number of SoftPFReq MSHR miss cycles
system.cpu.dcache.SoftPFReq_mshr_miss_latency::total      1372000                       # number of SoftPFReq MSHR miss cycles
system.cpu.dcache.SoftPFReq_mshr_miss_rate::.cpu.data     0.154930                       # mshr miss rate for SoftPFReq accesses
system.cpu.dcache.SoftPFReq_mshr_miss_rate::total     0.154930                       # mshr miss rate for SoftPFReq accesses
system.cpu.dcache.SoftPFReq_avg_mshr_miss_latency::.cpu.data 124727.272727                       # average SoftPFReq mshr miss latency
system.cpu.dcache.SoftPFReq_avg_mshr_miss_latency::total 124727.272727                       # average SoftPFReq mshr miss latency
system.cpu.dcache.LoadLockedReq_hits::.cpu.data           34                       # number of LoadLockedReq hits
system.cpu.dcache.LoadLockedReq_hits::total           34                       # number of LoadLockedReq hits
system.cpu.dcache.LoadLockedReq_accesses::.cpu.data           34                       # number of LoadLockedReq accesses(hits+misses)
system.cpu.dcache.LoadLockedReq_accesses::total           34                       # number of LoadLockedReq accesses(hits+misses)
system.cpu.dcache.StoreCondReq_hits::.cpu.data           34                       # number of StoreCondReq hits
system.cpu.dcache.StoreCondReq_hits::total           34                       # number of StoreCondReq hits
system.cpu.dcache.StoreCondReq_accesses::.cpu.data           34                       # number of StoreCondReq accesses(hits+misses)
system.cpu.dcache.StoreCondReq_accesses::total           34                       # number of StoreCondReq accesses(hits+misses)
system.cpu.dcache.power_state.pwrStateResidencyTicks::UNDEFINED 371605492000                       # Cumulative time (in ticks) in various power states
system.cpu.dcache.tags.tagsinuse           255.930703                       # Cycle average of tags in use
system.cpu.dcache.tags.total_refs            85065453                       # Total number of references to valid blocks.
system.cpu.dcache.tags.sampled_refs           1316083                       # Sample count of references to valid blocks.
system.cpu.dcache.tags.avg_refs             64.635325                       # Average number of references to valid blocks.
system.cpu.dcache.tags.warmup_cycle            258000                       # Cycle when the warmup percentage was hit.
system.cpu.dcache.tags.occ_blocks::.cpu.data   255.930703                       # Average occupied blocks per requestor
system.cpu.dcache.tags.occ_percent::.cpu.data     0.999729                       # Average percentage of cache occupancy
system.cpu.dcache.tags.occ_percent::total     0.999729                       # Average percentage of cache occupancy
system.cpu.dcache.tags.occ_task_id_blocks::1024          256                       # Occupied blocks per task id
system.cpu.dcache.tags.age_task_id_blocks_1024::0           36                       # Occupied blocks per task id
system.cpu.dcache.tags.age_task_id_blocks_1024::1          220                       # Occupied blocks per task id
system.cpu.dcache.tags.occ_task_id_percent::1024            1                       # Percentage of cache occupancy per task id
system.cpu.dcache.tags.tag_accesses         346838487                       # Number of tag accesses
system.cpu.dcache.tags.data_accesses        346838487                       # Number of data accesses
system.cpu.dcache.tags.power_state.pwrStateResidencyTicks::UNDEFINED 371605492000                       # Cumulative time (in ticks) in various power states
system.cpu.dtb.instHits                             0                       # ITB inst hits
system.cpu.dtb.instMisses                           0                       # ITB inst misses
system.cpu.dtb.readHits                             0                       # DTB read hits
system.cpu.dtb.readMisses                           0                       # DTB read misses
system.cpu.dtb.writeHits                            0                       # DTB write hits
system.cpu.dtb.writeMisses                          0                       # DTB write misses
system.cpu.dtb.inserts                              0                       # Number of times an entry is inserted into the TLB
system.cpu.dtb.flushTlb                             0                       # Number of times complete TLB was flushed
system.cpu.dtb.flushTlbMva                          0                       # Number of times TLB was flushed by MVA
system.cpu.dtb.flushTlbMvaAsid                      0                       # Number of times TLB was flushed by MVA & ASID
system.cpu.dtb.flushTlbAsid                         0                       # Number of times TLB was flushed by ASID
system.cpu.dtb.flushedEntries                       0                       # Number of entries that have been flushed from TLB
system.cpu.dtb.alignFaults                          0                       # Number of TLB faults due to alignment restrictions
system.cpu.dtb.prefetchFaults                       0                       # Number of TLB faults due to prefetch
system.cpu.dtb.domainFaults                         0                       # Number of TLB faults due to domain restrictions
system.cpu.dtb.permsFaults                          0                       # Number of TLB faults due to permissions restrictions
system.cpu.dtb.readAccesses                         0                       # DTB read accesses
system.cpu.dtb.writeAccesses                        0                       # DTB write accesses
system.cpu.dtb.instAccesses                         0                       # ITB inst accesses
system.cpu.dtb.hits                                 0                       # Total TLB (inst and data) hits
system.cpu.dtb.misses                               0                       # Total TLB (inst and data) misses
system.cpu.dtb.accesses                             0                       # Total TLB (inst and data) accesses
system.cpu.dtb.stage2_mmu.stage2_tlb.instHits            0                       # ITB inst hits
system.cpu.dtb.stage2_mmu.stage2_tlb.instMisses            0                       # ITB inst misses
system.cpu.dtb.stage2_mmu.stage2_tlb.readHits            0                       # DTB read hits
system.cpu.dtb.stage2_mmu.stage2_tlb.readMisses            0                       # DTB read misses
system.cpu.dtb.stage2_mmu.stage2_tlb.writeHits            0                       # DTB write hits
system.cpu.dtb.stage2_mmu.stage2_tlb.writeMisses            0                       # DTB write misses
system.cpu.dtb.stage2_mmu.stage2_tlb.inserts            0                       # Number of times an entry is inserted into the TLB
system.cpu.dtb.stage2_mmu.stage2_tlb.flushTlb            0                       # Number of times complete TLB was flushed
system.cpu.dtb.stage2_mmu.stage2_tlb.flushTlbMva            0                       # Number of times TLB was flushed by MVA
system.cpu.dtb.stage2_mmu.stage2_tlb.flushTlbMvaAsid            0                       # Number of times TLB was flushed by MVA & ASID
system.cpu.dtb.stage2_mmu.stage2_tlb.flushTlbAsid            0                       # Number of times TLB was flushed by ASID
system.cpu.dtb.stage2_mmu.stage2_tlb.flushedEntries            0                       # Number of entries that have been flushed from TLB
system.cpu.dtb.stage2_mmu.stage2_tlb.alignFaults            0                       # Number of TLB faults due to alignment restrictions
system.cpu.dtb.stage2_mmu.stage2_tlb.prefetchFaults            0                       # Number of TLB faults due to prefetch
system.cpu.dtb.stage2_mmu.stage2_tlb.domainFaults            0                       # Number of TLB faults due to domain restrictions
system.cpu.dtb.stage2_mmu.stage2_tlb.permsFaults            0                       # Number of TLB faults due to permissions restrictions
system.cpu.dtb.stage2_mmu.stage2_tlb.readAccesses            0                       # DTB read accesses
system.cpu.dtb.stage2_mmu.stage2_tlb.writeAccesses            0                       # DTB write accesses
system.cpu.dtb.stage2_mmu.stage2_tlb.instAccesses            0                       # ITB inst accesses
system.cpu.dtb.stage2_mmu.stage2_tlb.hits            0                       # Total TLB (inst and data) hits
system.cpu.dtb.stage2_mmu.stage2_tlb.misses            0                       # Total TLB (inst and data) misses
system.cpu.dtb.stage2_mmu.stage2_tlb.accesses            0                       # Total TLB (inst and data) accesses
system.cpu.dtb.stage2_mmu.stage2_tlb.walker.walks            0                       # Table walker walks requested
system.cpu.dtb.stage2_mmu.stage2_tlb.walker.requestOrigin_Requested::Data            0                       # Table walker requests started/completed, data/inst
system.cpu.dtb.stage2_mmu.stage2_tlb.walker.requestOrigin_Requested::Inst            0                       # Table walker requests started/completed, data/inst
system.cpu.dtb.stage2_mmu.stage2_tlb.walker.requestOrigin_Requested::total            0                       # Table walker requests started/completed, data/inst
system.cpu.dtb.stage2_mmu.stage2_tlb.walker.requestOrigin_Completed::Data            0                       # Table walker requests started/completed, data/inst
system.cpu.dtb.stage2_mmu.stage2_tlb.walker.requestOrigin_Completed::Inst            0                       # Table walker requests started/completed, data/inst
system.cpu.dtb.stage2_mmu.stage2_tlb.walker.requestOrigin_Completed::total            0                       # Table walker requests started/completed, data/inst
system.cpu.dtb.stage2_mmu.stage2_tlb.walker.requestOrigin::total            0                       # Table walker requests started/completed, data/inst
system.cpu.dtb.stage2_mmu.stage2_tlb.walker.power_state.pwrStateResidencyTicks::UNDEFINED 371605492000                       # Cumulative time (in ticks) in various power states
system.cpu.dtb.walker.walks                         0                       # Table walker walks requested
system.cpu.dtb.walker.requestOrigin_Requested::Data            0                       # Table walker requests started/completed, data/inst
system.cpu.dtb.walker.requestOrigin_Requested::Inst            0                       # Table walker requests started/completed, data/inst
system.cpu.dtb.walker.requestOrigin_Requested::total            0                       # Table walker requests started/completed, data/inst
system.cpu.dtb.walker.requestOrigin_Completed::Data            0                       # Table walker requests started/completed, data/inst
system.cpu.dtb.walker.requestOrigin_Completed::Inst            0                       # Table walker requests started/completed, data/inst
system.cpu.dtb.walker.requestOrigin_Completed::total            0                       # Table walker requests started/completed, data/inst
system.cpu.dtb.walker.requestOrigin::total            0                       # Table walker requests started/completed, data/inst
system.cpu.dtb.walker.power_state.pwrStateResidencyTicks::UNDEFINED 371605492000                       # Cumulative time (in ticks) in various power states
system.cpu.fetch2.intInstructions            45071147                       # Number of integer instructions successfully decoded
system.cpu.fetch2.fpInstructions                    0                       # Number of floating point instructions successfully decoded
system.cpu.fetch2.vecInstructions                   0                       # Number of SIMD instructions successfully decoded
system.cpu.fetch2.loadInstructions            2086500                       # Number of memory load instructions successfully decoded
system.cpu.fetch2.storeInstructions            169179                       # Number of memory store instructions successfully decoded
system.cpu.fetch2.amoInstructions                   0                       # Number of memory atomic instructions successfully decoded
system.cpu.icache.demand_hits::.cpu.inst     31997506                       # number of demand (read+write) hits
system.cpu.icache.demand_hits::total         31997506                       # number of demand (read+write) hits
system.cpu.icache.overall_hits::.cpu.inst     31997506                       # number of overall hits
system.cpu.icache.overall_hits::total        31997506                       # number of overall hits
system.cpu.icache.demand_misses::.cpu.inst          336                       # number of demand (read+write) misses
system.cpu.icache.demand_misses::total            336                       # number of demand (read+write) misses
system.cpu.icache.overall_misses::.cpu.inst          336                       # number of overall misses
system.cpu.icache.overall_misses::total           336                       # number of overall misses
system.cpu.icache.demand_miss_latency::.cpu.inst     36038000                       # number of demand (read+write) miss cycles
system.cpu.icache.demand_miss_latency::total     36038000                       # number of demand (read+write) miss cycles
system.cpu.icache.overall_miss_latency::.cpu.inst     36038000                       # number of overall miss cycles
system.cpu.icache.overall_miss_latency::total     36038000                       # number of overall miss cycles
system.cpu.icache.demand_accesses::.cpu.inst     31997842                       # number of demand (read+write) accesses
system.cpu.icache.demand_accesses::total     31997842                       # number of demand (read+write) accesses
system.cpu.icache.overall_accesses::.cpu.inst     31997842                       # number of overall (read+write) accesses
system.cpu.icache.overall_accesses::total     31997842                       # number of overall (read+write) accesses
system.cpu.icache.demand_miss_rate::.cpu.inst     0.000011                       # miss rate for demand accesses
system.cpu.icache.demand_miss_rate::total     0.000011                       # miss rate for demand accesses
system.cpu.icache.overall_miss_rate::.cpu.inst     0.000011                       # miss rate for overall accesses
system.cpu.icache.overall_miss_rate::total     0.000011                       # miss rate for overall accesses
system.cpu.icache.demand_avg_miss_latency::.cpu.inst 107255.952381                       # average overall miss latency
system.cpu.icache.demand_avg_miss_latency::total 107255.952381                       # average overall miss latency
system.cpu.icache.overall_avg_miss_latency::.cpu.inst 107255.952381                       # average overall miss latency
system.cpu.icache.overall_avg_miss_latency::total 107255.952381                       # average overall miss latency
system.cpu.icache.blocked_cycles::no_mshrs            0                       # number of cycles access was blocked
system.cpu.icache.blocked_cycles::no_targets            0                       # number of cycles access was blocked
system.cpu.icache.blocked::no_mshrs                 0                       # number of cycles access was blocked
system.cpu.icache.blocked::no_targets               0                       # number of cycles access was blocked
system.cpu.icache.avg_blocked_cycles::no_mshrs          nan                       # average number of cycles each access was blocked
system.cpu.icache.avg_blocked_cycles::no_targets          nan                       # average number of cycles each access was blocked
system.cpu.icache.writebacks::.writebacks          152                       # number of writebacks
system.cpu.icache.writebacks::total               152                       # number of writebacks
system.cpu.icache.demand_mshr_misses::.cpu.inst          336                       # number of demand (read+write) MSHR misses
system.cpu.icache.demand_mshr_misses::total          336                       # number of demand (read+write) MSHR misses
system.cpu.icache.overall_mshr_misses::.cpu.inst          336                       # number of overall MSHR misses
system.cpu.icache.overall_mshr_misses::total          336                       # number of overall MSHR misses
system.cpu.icache.demand_mshr_miss_latency::.cpu.inst     35366000                       # number of demand (read+write) MSHR miss cycles
system.cpu.icache.demand_mshr_miss_latency::total     35366000                       # number of demand (read+write) MSHR miss cycles
system.cpu.icache.overall_mshr_miss_latency::.cpu.inst     35366000                       # number of overall MSHR miss cycles
system.cpu.icache.overall_mshr_miss_latency::total     35366000                       # number of overall MSHR miss cycles
system.cpu.icache.demand_mshr_miss_rate::.cpu.inst     0.000011                       # mshr miss rate for demand accesses
system.cpu.icache.demand_mshr_miss_rate::total     0.000011                       # mshr miss rate for demand accesses
system.cpu.icache.overall_mshr_miss_rate::.cpu.inst     0.000011                       # mshr miss rate for overall accesses
system.cpu.icache.overall_mshr_miss_rate::total     0.000011                       # mshr miss rate for overall accesses
system.cpu.icache.demand_avg_mshr_miss_latency::.cpu.inst 105255.952381                       # average overall mshr miss latency
system.cpu.icache.demand_avg_mshr_miss_latency::total 105255.952381                       # average overall mshr miss latency
system.cpu.icache.overall_avg_mshr_miss_latency::.cpu.inst 105255.952381                       # average overall mshr miss latency
system.cpu.icache.overall_avg_mshr_miss_latency::total 105255.952381                       # average overall mshr miss latency
system.cpu.icache.replacements                    152                       # number of replacements
system.cpu.icache.ReadReq_hits::.cpu.inst     31997506                       # number of ReadReq hits
system.cpu.icache.ReadReq_hits::total        31997506                       # number of ReadReq hits
system.cpu.icache.ReadReq_misses::.cpu.inst          336                       # number of ReadReq misses
system.cpu.icache.ReadReq_misses::total           336                       # number of ReadReq misses
system.cpu.icache.ReadReq_miss_latency::.cpu.inst     36038000                       # number of ReadReq miss cycles
system.cpu.icache.ReadReq_miss_latency::total     36038000                       # number of ReadReq miss cycles
system.cpu.icache.ReadReq_accesses::.cpu.inst     31997842                       # number of ReadReq accesses(hits+misses)
system.cpu.icache.ReadReq_accesses::total     31997842                       # number of ReadReq accesses(hits+misses)
system.cpu.icache.ReadReq_miss_rate::.cpu.inst     0.000011                       # miss rate for ReadReq accesses
system.cpu.icache.ReadReq_miss_rate::total     0.000011                       # miss rate for ReadReq accesses
system.cpu.icache.ReadReq_avg_miss_latency::.cpu.inst 107255.952381                       # average ReadReq miss latency
system.cpu.icache.ReadReq_avg_miss_latency::total 107255.952381                       # average ReadReq miss latency
system.cpu.icache.ReadReq_mshr_misses::.cpu.inst          336                       # number of ReadReq MSHR misses
system.cpu.icache.ReadReq_mshr_misses::total          336                       # number of ReadReq MSHR misses
system.cpu.icache.ReadReq_mshr_miss_latency::.cpu.inst     35366000                       # number of ReadReq MSHR miss cycles
system.cpu.icache.ReadReq_mshr_miss_latency::total     35366000                       # number of ReadReq MSHR miss cycles
system.cpu.icache.ReadReq_mshr_miss_rate::.cpu.inst     0.000011                       # mshr miss rate for ReadReq accesses
system.cpu.icache.ReadReq_mshr_miss_rate::total     0.000011                       # mshr miss rate for ReadReq accesses
system.cpu.icache.ReadReq_avg_mshr_miss_latency::.cpu.inst 105255.952381                       # average ReadReq mshr miss latency
system.cpu.icache.ReadReq_avg_mshr_miss_latency::total 105255.952381                       # average ReadReq mshr miss latency
system.cpu.icache.power_state.pwrStateResidencyTicks::UNDEFINED 371605492000                       # Cumulative time (in ticks) in various power states
system.cpu.icache.tags.tagsinuse           164.816231                       # Cycle average of tags in use
system.cpu.icache.tags.total_refs            31997842                       # Total number of references to valid blocks.
system.cpu.icache.tags.sampled_refs               336                       # Sample count of references to valid blocks.
system.cpu.icache.tags.avg_refs          95231.672619                       # Average number of references to valid blocks.
system.cpu.icache.tags.warmup_cycle            123000                       # Cycle when the warmup percentage was hit.
system.cpu.icache.tags.occ_blocks::.cpu.inst   164.816231                       # Average occupied blocks per requestor
system.cpu.icache.tags.occ_percent::.cpu.inst     0.643813                       # Average percentage of cache occupancy
system.cpu.icache.tags.occ_percent::total     0.643813                       # Average percentage of cache occupancy
system.cpu.icache.tags.occ_task_id_blocks::1024          184                       # Occupied blocks per task id
system.cpu.icache.tags.age_task_id_blocks_1024::4          184                       # Occupied blocks per task id
system.cpu.icache.tags.occ_task_id_percent::1024     0.718750                       # Percentage of cache occupancy per task id
system.cpu.icache.tags.tag_accesses          31998178                       # Number of tag accesses
system.cpu.icache.tags.data_accesses         31998178                       # Number of data accesses
system.cpu.icache.tags.power_state.pwrStateResidencyTicks::UNDEFINED 371605492000                       # Cumulative time (in ticks) in various power states
system.cpu.itb.instHits                             0                       # ITB inst hits
system.cpu.itb.instMisses                           0                       # ITB inst misses
system.cpu.itb.readHits                             0                       # DTB read hits
system.cpu.itb.readMisses                           0                       # DTB read misses
system.cpu.itb.writeHits                            0                       # DTB write hits
system.cpu.itb.writeMisses                          0                       # DTB write misses
system.cpu.itb.inserts                              0                       # Number of times an entry is inserted into the TLB
system.cpu.itb.flushTlb                             0                       # Number of times complete TLB was flushed
system.cpu.itb.flushTlbMva                          0                       # Number of times TLB was flushed by MVA
system.cpu.itb.flushTlbMvaAsid                      0                       # Number of times TLB was flushed by MVA & ASID
system.cpu.itb.flushTlbAsid                         0                       # Number of times TLB was flushed by ASID
system.cpu.itb.flushedEntries                       0                       # Number of entries that have been flushed from TLB
system.cpu.itb.alignFaults                          0                       # Number of TLB faults due to alignment restrictions
system.cpu.itb.prefetchFaults                       0                       # Number of TLB faults due to prefetch
system.cpu.itb.domainFaults                         0                       # Number of TLB faults due to domain restrictions
system.cpu.itb.permsFaults                          0                       # Number of TLB faults due to permissions restrictions
system.cpu.itb.readAccesses                         0                       # DTB read accesses
system.cpu.itb.writeAccesses                        0                       # DTB write accesses
system.cpu.itb.instAccesses                         0                       # ITB inst accesses
system.cpu.itb.hits                                 0                       # Total TLB (inst and data) hits
system.cpu.itb.misses                               0                       # Total TLB (inst and data) misses
system.cpu.itb.accesses                             0                       # Total TLB (inst and data) accesses
system.cpu.itb.stage2_mmu.stage2_tlb.instHits            0                       # ITB inst hits
system.cpu.itb.stage2_mmu.stage2_tlb.instMisses            0                       # ITB inst misses
system.cpu.itb.stage2_mmu.stage2_tlb.readHits            0                       # DTB read hits
system.cpu.itb.stage2_mmu.stage2_tlb.readMisses            0                       # DTB read misses
system.cpu.itb.stage2_mmu.stage2_tlb.writeHits            0                       # DTB write hits
system.cpu.itb.stage2_mmu.stage2_tlb.writeMisses            0                       # DTB write misses
system.cpu.itb.stage2_mmu.stage2_tlb.inserts            0                       # Number of times an entry is inserted into the TLB
system.cpu.itb.stage2_mmu.stage2_tlb.flushTlb            0                       # Number of times complete TLB was flushed
system.cpu.itb.stage2_mmu.stage2_tlb.flushTlbMva            0                       # Number of times TLB was flushed by MVA
system.cpu.itb.stage2_mmu.stage2_tlb.flushTlbMvaAsid            0                       # Number of times TLB was flushed by MVA & ASID
system.cpu.itb.stage2_mmu.stage2_tlb.flushTlbAsid            0                       # Number of times TLB was flushed by ASID
system.cpu.itb.stage2_mmu.stage2_tlb.flushedEntries            0                       # Number of entries that have been flushed from TLB
system.cpu.itb.stage2_mmu.stage2_tlb.alignFaults            0                       # Number of TLB faults due to alignment restrictions
system.cpu.itb.stage2_mmu.stage2_tlb.prefetchFaults            0                       # Number of TLB faults due to prefetch
system.cpu.itb.stage2_mmu.stage2_tlb.domainFaults            0                       # Number of TLB faults due to domain restrictions
system.cpu.itb.stage2_mmu.stage2_tlb.permsFaults            0                       # Number of TLB faults due to permissions restrictions
system.cpu.itb.stage2_mmu.stage2_tlb.readAccesses            0                       # DTB read accesses
system.cpu.itb.stage2_mmu.stage2_tlb.writeAccesses            0                       # DTB write accesses
system.cpu.itb.stage2_mmu.stage2_tlb.instAccesses            0                       # ITB inst accesses
system.cpu.itb.stage2_mmu.stage2_tlb.hits            0                       # Total TLB (inst and data) hits
system.cpu.itb.stage2_mmu.stage2_tlb.misses            0                       # Total TLB (inst and data) misses
system.cpu.itb.stage2_mmu.stage2_tlb.accesses            0                       # Total TLB (inst and data) accesses
system.cpu.itb.stage2_mmu.stage2_tlb.walker.walks            0                       # Table walker walks requested
system.cpu.itb.stage2_mmu.stage2_tlb.walker.requestOrigin_Requested::Data            0                       # Table walker requests started/completed, data/inst
system.cpu.itb.stage2_mmu.stage2_tlb.walker.requestOrigin_Requested::Inst            0                       # Table walker requests started/completed, data/inst
system.cpu.itb.stage2_mmu.stage2_tlb.walker.requestOrigin_Requested::total            0                       # Table walker requests started/completed, data/inst
system.cpu.itb.stage2_mmu.stage2_tlb.walker.requestOrigin_Completed::Data            0                       # Table walker requests started/completed, data/inst
system.cpu.itb.stage2_mmu.stage2_tlb.walker.requestOrigin_Completed::Inst            0                       # Table walker requests started/completed, data/inst
system.cpu.itb.stage2_mmu.stage2_tlb.walker.requestOrigin_Completed::total            0                       # Table walker requests started/completed, data/inst
system.cpu.itb.stage2_mmu.stage2_tlb.walker.requestOrigin::total            0                       # Table walker requests started/completed, data/inst
system.cpu.itb.stage2_mmu.stage2_tlb.walker.power_state.pwrStateResidencyTicks::UNDEFINED 371605492000                       # Cumulative time (in ticks) in various power states
system.cpu.itb.walker.walks                         0                       # Table walker walks requested
system.cpu.itb.walker.requestOrigin_Requested::Data            0                       # Table walker requests started/completed, data/inst
system.cpu.itb.walker.requestOrigin_Requested::Inst            0                       # Table walker requests started/completed, data/inst
system.cpu.itb.walker.requestOrigin_Requested::total            0                       # Table walker requests started/completed, data/inst
system.cpu.itb.walker.requestOrigin_Completed::Data            0                       # Table walker requests started/completed, data/inst
system.cpu.itb.walker.requestOrigin_Completed::Inst            0                       # Table walker requests started/completed, data/inst
system.cpu.itb.walker.requestOrigin_Completed::total            0                       # Table walker requests started/completed, data/inst
system.cpu.itb.walker.requestOrigin::total            0                       # Table walker requests started/completed, data/inst
system.cpu.itb.walker.power_state.pwrStateResidencyTicks::UNDEFINED 371605492000                       # Cumulative time (in ticks) in various power states
system.cpu.power_state.pwrStateResidencyTicks::ON 371605492000                       # Cumulative time (in ticks) in various power states
system.cpu.thread_0.numInsts                100000000                       # Number of Instructions committed
system.cpu.thread_0.numOps                  184218644                       # Number of Ops committed
system.cpu.thread_0.numMemRefs                      0                       # Number of Memory References
system.cpu_clk_domain.clock                      1000                       # Clock period in ticks
system.cpu_voltage_domain.voltage                   1                       # Voltage in Volts
system.l2.demand_hits::.cpu.inst                   65                       # number of demand (read+write) hits
system.l2.demand_hits::.cpu.data                   48                       # number of demand (read+write) hits
system.l2.demand_hits::total                      113                       # number of demand (read+write) hits
system.l2.overall_hits::.cpu.inst                  65                       # number of overall hits
system.l2.overall_hits::.cpu.data                  48                       # number of overall hits
system.l2.overall_hits::total                     113                       # number of overall hits
system.l2.demand_misses::.cpu.inst                271                       # number of demand (read+write) misses
system.l2.demand_misses::.cpu.data            1316035                       # number of demand (read+write) misses
system.l2.demand_misses::total                1316306                       # number of demand (read+write) misses
system.l2.overall_misses::.cpu.inst               271                       # number of overall misses
system.l2.overall_misses::.cpu.data           1316035                       # number of overall misses
system.l2.overall_misses::total               1316306                       # number of overall misses
system.l2.demand_miss_latency::.cpu.inst     32646000                       # number of demand (read+write) miss cycles
system.l2.demand_miss_latency::.cpu.data 164199123000                       # number of demand (read+write) miss cycles
system.l2.demand_miss_latency::total     164231769000                       # number of demand (read+write) miss cycles
system.l2.overall_miss_latency::.cpu.inst     32646000                       # number of overall miss cycles
system.l2.overall_miss_latency::.cpu.data 164199123000                       # number of overall miss cycles
system.l2.overall_miss_latency::total    164231769000                       # number of overall miss cycles
system.l2.demand_accesses::.cpu.inst              336                       # number of demand (read+write) accesses
system.l2.demand_accesses::.cpu.data          1316083                       # number of demand (read+write) accesses
system.l2.demand_accesses::total              1316419                       # number of demand (read+write) accesses
system.l2.overall_accesses::.cpu.inst             336                       # number of overall (read+write) accesses
system.l2.overall_accesses::.cpu.data         1316083                       # number of overall (read+write) accesses
system.l2.overall_accesses::total             1316419                       # number of overall (read+write) accesses
system.l2.demand_miss_rate::.cpu.inst        0.806548                       # miss rate for demand accesses
system.l2.demand_miss_rate::.cpu.data        0.999964                       # miss rate for demand accesses
system.l2.demand_miss_rate::total            0.999914                       # miss rate for demand accesses
system.l2.overall_miss_rate::.cpu.inst       0.806548                       # miss rate for overall accesses
system.l2.overall_miss_rate::.cpu.data       0.999964                       # miss rate for overall accesses
system.l2.overall_miss_rate::total           0.999914                       # miss rate for overall accesses
system.l2.demand_avg_miss_latency::.cpu.inst 120464.944649                       # average overall miss latency
system.l2.demand_avg_miss_latency::.cpu.data 124768.051762                       # average overall miss latency
system.l2.demand_avg_miss_latency::total 124767.165841                       # average overall miss latency
system.l2.overall_avg_miss_latency::.cpu.inst 120464.944649                       # average overall miss latency
system.l2.overall_avg_miss_latency::.cpu.data 124768.051762                       # average overall miss latency
system.l2.overall_avg_miss_latency::total 124767.165841                       # average overall miss latency
system.l2.blocked_cycles::no_mshrs                  0                       # number of cycles access was blocked
system.l2.blocked_cycles::no_targets                0                       # number of cycles access was blocked
system.l2.blocked::no_mshrs                         0                       # number of cycles access was blocked
system.l2.blocked::no_targets                       0                       # number of cycles access was blocked
system.l2.avg_blocked_cycles::no_mshrs            nan                       # average number of cycles each access was blocked
system.l2.avg_blocked_cycles::no_targets          nan                       # average number of cycles each access was blocked
system.l2.writebacks::.writebacks             1313847                       # number of writebacks
system.l2.writebacks::total                   1313847                       # number of writebacks
system.l2.demand_mshr_hits::.cpu.data               7                       # number of demand (read+write) MSHR hits
system.l2.demand_mshr_hits::total                   7                       # number of demand (read+write) MSHR hits
system.l2.overall_mshr_hits::.cpu.data              7                       # number of overall MSHR hits
system.l2.overall_mshr_hits::total                  7                       # number of overall MSHR hits
system.l2.demand_mshr_misses::.cpu.inst           271                       # number of demand (read+write) MSHR misses
system.l2.demand_mshr_misses::.cpu.data       1316028                       # number of demand (read+write) MSHR misses
system.l2.demand_mshr_misses::total           1316299                       # number of demand (read+write) MSHR misses
system.l2.overall_mshr_misses::.cpu.inst          271                       # number of overall MSHR misses
system.l2.overall_mshr_misses::.cpu.data      1316028                       # number of overall MSHR misses
system.l2.overall_mshr_misses::total          1316299                       # number of overall MSHR misses
system.l2.demand_mshr_miss_latency::.cpu.inst     27226000                       # number of demand (read+write) MSHR miss cycles
system.l2.demand_mshr_miss_latency::.cpu.data 137877812000                       # number of demand (read+write) MSHR miss cycles
system.l2.demand_mshr_miss_latency::total 137905038000                       # number of demand (read+write) MSHR miss cycles
system.l2.overall_mshr_miss_latency::.cpu.inst     27226000                       # number of overall MSHR miss cycles
system.l2.overall_mshr_miss_latency::.cpu.data 137877812000                       # number of overall MSHR miss cycles
system.l2.overall_mshr_miss_latency::total 137905038000                       # number of overall MSHR miss cycles
system.l2.demand_mshr_miss_rate::.cpu.inst     0.806548                       # mshr miss rate for demand accesses
system.l2.demand_mshr_miss_rate::.cpu.data     0.999958                       # mshr miss rate for demand accesses
system.l2.demand_mshr_miss_rate::total       0.999909                       # mshr miss rate for demand accesses
system.l2.overall_mshr_miss_rate::.cpu.inst     0.806548                       # mshr miss rate for overall accesses
system.l2.overall_mshr_miss_rate::.cpu.data     0.999958                       # mshr miss rate for overall accesses
system.l2.overall_mshr_miss_rate::total      0.999909                       # mshr miss rate for overall accesses
system.l2.demand_avg_mshr_miss_latency::.cpu.inst 100464.944649                       # average overall mshr miss latency
system.l2.demand_avg_mshr_miss_latency::.cpu.data 104768.144751                       # average overall mshr miss latency
system.l2.demand_avg_mshr_miss_latency::total 104767.258807                       # average overall mshr miss latency
system.l2.overall_avg_mshr_miss_latency::.cpu.inst 100464.944649                       # average overall mshr miss latency
system.l2.overall_avg_mshr_miss_latency::.cpu.data 104768.144751                       # average overall mshr miss latency
system.l2.overall_avg_mshr_miss_latency::total 104767.258807                       # average overall mshr miss latency
system.l2.replacements                        1314505                       # number of replacements
system.l2.WritebackDirty_hits::.writebacks      1315662                       # number of WritebackDirty hits
system.l2.WritebackDirty_hits::total          1315662                       # number of WritebackDirty hits
system.l2.WritebackDirty_accesses::.writebacks      1315662                       # number of WritebackDirty accesses(hits+misses)
system.l2.WritebackDirty_accesses::total      1315662                       # number of WritebackDirty accesses(hits+misses)
system.l2.WritebackClean_hits::.writebacks          143                       # number of WritebackClean hits
system.l2.WritebackClean_hits::total              143                       # number of WritebackClean hits
system.l2.WritebackClean_accesses::.writebacks          143                       # number of WritebackClean accesses(hits+misses)
system.l2.WritebackClean_accesses::total          143                       # number of WritebackClean accesses(hits+misses)
system.l2.CleanEvict_mshr_misses::.writebacks           18                       # number of CleanEvict MSHR misses
system.l2.CleanEvict_mshr_misses::total            18                       # number of CleanEvict MSHR misses
system.l2.CleanEvict_mshr_miss_rate::.writebacks          inf                       # mshr miss rate for CleanEvict accesses
system.l2.CleanEvict_mshr_miss_rate::total          inf                       # mshr miss rate for CleanEvict accesses
system.l2.ReadExReq_hits::.cpu.data                13                       # number of ReadExReq hits
system.l2.ReadExReq_hits::total                    13                       # number of ReadExReq hits
system.l2.ReadExReq_misses::.cpu.data         1315877                       # number of ReadExReq misses
system.l2.ReadExReq_misses::total             1315877                       # number of ReadExReq misses
system.l2.ReadExReq_miss_latency::.cpu.data 164178041000                       # number of ReadExReq miss cycles
system.l2.ReadExReq_miss_latency::total  164178041000                       # number of ReadExReq miss cycles
system.l2.ReadExReq_accesses::.cpu.data       1315890                       # number of ReadExReq accesses(hits+misses)
system.l2.ReadExReq_accesses::total           1315890                       # number of ReadExReq accesses(hits+misses)
system.l2.ReadExReq_miss_rate::.cpu.data     0.999990                       # miss rate for ReadExReq accesses
system.l2.ReadExReq_miss_rate::total         0.999990                       # miss rate for ReadExReq accesses
system.l2.ReadExReq_avg_miss_latency::.cpu.data 124767.011658                       # average ReadExReq miss latency
system.l2.ReadExReq_avg_miss_latency::total 124767.011658                       # average ReadExReq miss latency
system.l2.ReadExReq_mshr_misses::.cpu.data      1315877                       # number of ReadExReq MSHR misses
system.l2.ReadExReq_mshr_misses::total        1315877                       # number of ReadExReq MSHR misses
system.l2.ReadExReq_mshr_miss_latency::.cpu.data 137860501000                       # number of ReadExReq MSHR miss cycles
system.l2.ReadExReq_mshr_miss_latency::total 137860501000                       # number of ReadExReq MSHR miss cycles
system.l2.ReadExReq_mshr_miss_rate::.cpu.data     0.999990                       # mshr miss rate for ReadExReq accesses
system.l2.ReadExReq_mshr_miss_rate::total     0.999990                       # mshr miss rate for ReadExReq accesses
system.l2.ReadExReq_avg_mshr_miss_latency::.cpu.data 104767.011658                       # average ReadExReq mshr miss latency
system.l2.ReadExReq_avg_mshr_miss_latency::total 104767.011658                       # average ReadExReq mshr miss latency
system.l2.ReadCleanReq_hits::.cpu.inst             65                       # number of ReadCleanReq hits
system.l2.ReadCleanReq_hits::total                 65                       # number of ReadCleanReq hits
system.l2.ReadCleanReq_misses::.cpu.inst          271                       # number of ReadCleanReq misses
system.l2.ReadCleanReq_misses::total              271                       # number of ReadCleanReq misses
system.l2.ReadCleanReq_miss_latency::.cpu.inst     32646000                       # number of ReadCleanReq miss cycles
system.l2.ReadCleanReq_miss_latency::total     32646000                       # number of ReadCleanReq miss cycles
system.l2.ReadCleanReq_accesses::.cpu.inst          336                       # number of ReadCleanReq accesses(hits+misses)
system.l2.ReadCleanReq_accesses::total            336                       # number of ReadCleanReq accesses(hits+misses)
system.l2.ReadCleanReq_miss_rate::.cpu.inst     0.806548                       # miss rate for ReadCleanReq accesses
system.l2.ReadCleanReq_miss_rate::total      0.806548                       # miss rate for ReadCleanReq accesses
system.l2.ReadCleanReq_avg_miss_latency::.cpu.inst 120464.944649                       # average ReadCleanReq miss latency
system.l2.ReadCleanReq_avg_miss_latency::total 120464.944649                       # average ReadCleanReq miss latency
system.l2.ReadCleanReq_mshr_misses::.cpu.inst          271                       # number of ReadCleanReq MSHR misses
system.l2.ReadCleanReq_mshr_misses::total          271                       # number of ReadCleanReq MSHR misses
system.l2.ReadCleanReq_mshr_miss_latency::.cpu.inst     27226000                       # number of ReadCleanReq MSHR miss cycles
system.l2.ReadCleanReq_mshr_miss_latency::total     27226000                       # number of ReadCleanReq MSHR miss cycles
system.l2.ReadCleanReq_mshr_miss_rate::.cpu.inst     0.806548                       # mshr miss rate for ReadCleanReq accesses
system.l2.ReadCleanReq_mshr_miss_rate::total     0.806548                       # mshr miss rate for ReadCleanReq accesses
system.l2.ReadCleanReq_avg_mshr_miss_latency::.cpu.inst 100464.944649                       # average ReadCleanReq mshr miss latency
system.l2.ReadCleanReq_avg_mshr_miss_latency::total 100464.944649                       # average ReadCleanReq mshr miss latency
system.l2.ReadSharedReq_hits::.cpu.data            35                       # number of ReadSharedReq hits
system.l2.ReadSharedReq_hits::total                35                       # number of ReadSharedReq hits
system.l2.ReadSharedReq_misses::.cpu.data          158                       # number of ReadSharedReq misses
system.l2.ReadSharedReq_misses::total             158                       # number of ReadSharedReq misses
system.l2.ReadSharedReq_miss_latency::.cpu.data     21082000                       # number of ReadSharedReq miss cycles
system.l2.ReadSharedReq_miss_latency::total     21082000                       # number of ReadSharedReq miss cycles
system.l2.ReadSharedReq_accesses::.cpu.data          193                       # number of ReadSharedReq accesses(hits+misses)
system.l2.ReadSharedReq_accesses::total           193                       # number of ReadSharedReq accesses(hits+misses)
system.l2.ReadSharedReq_miss_rate::.cpu.data     0.818653                       # miss rate for ReadSharedReq accesses
system.l2.ReadSharedReq_miss_rate::total     0.818653                       # miss rate for ReadSharedReq accesses
system.l2.ReadSharedReq_avg_miss_latency::.cpu.data 133430.379747                       # average ReadSharedReq miss latency
system.l2.ReadSharedReq_avg_miss_latency::total 133430.379747                       # average ReadSharedReq miss latency
system.l2.ReadSharedReq_mshr_hits::.cpu.data            7                       # number of ReadSharedReq MSHR hits
system.l2.ReadSharedReq_mshr_hits::total            7                       # number of ReadSharedReq MSHR hits
system.l2.ReadSharedReq_mshr_misses::.cpu.data          151                       # number of ReadSharedReq MSHR misses
system.l2.ReadSharedReq_mshr_misses::total          151                       # number of ReadSharedReq MSHR misses
system.l2.ReadSharedReq_mshr_miss_latency::.cpu.data     17311000                       # number of ReadSharedReq MSHR miss cycles
system.l2.ReadSharedReq_mshr_miss_latency::total     17311000                       # number of ReadSharedReq MSHR miss cycles
system.l2.ReadSharedReq_mshr_miss_rate::.cpu.data     0.782383                       # mshr miss rate for ReadSharedReq accesses
system.l2.ReadSharedReq_mshr_miss_rate::total     0.782383                       # mshr miss rate for ReadSharedReq accesses
system.l2.ReadSharedReq_avg_mshr_miss_latency::.cpu.data 114642.384106                       # average ReadSharedReq mshr miss latency
system.l2.ReadSharedReq_avg_mshr_miss_latency::total 114642.384106                       # average ReadSharedReq mshr miss latency
system.l2.power_state.pwrStateResidencyTicks::UNDEFINED 371605492000                       # Cumulative time (in ticks) in various power states
system.l2.tags.tagsinuse                  2025.548701                       # Cycle average of tags in use
system.l2.tags.total_refs                     2632320                       # Total number of references to valid blocks.
system.l2.tags.sampled_refs                   1316553                       # Sample count of references to valid blocks.
system.l2.tags.avg_refs                      1.999403                       # Average number of references to valid blocks.
system.l2.tags.warmup_cycle                    102000                       # Cycle when the warmup percentage was hit.
system.l2.tags.occ_blocks::.writebacks       0.222224                       # Average occupied blocks per requestor
system.l2.tags.occ_blocks::.cpu.inst         1.919136                       # Average occupied blocks per requestor
system.l2.tags.occ_blocks::.cpu.data      2023.407341                       # Average occupied blocks per requestor
system.l2.tags.occ_percent::.writebacks      0.000109                       # Average percentage of cache occupancy
system.l2.tags.occ_percent::.cpu.inst        0.000937                       # Average percentage of cache occupancy
system.l2.tags.occ_percent::.cpu.data        0.987992                       # Average percentage of cache occupancy
system.l2.tags.occ_percent::total            0.989037                       # Average percentage of cache occupancy
system.l2.tags.occ_task_id_blocks::1024          2048                       # Occupied blocks per task id
system.l2.tags.age_task_id_blocks_1024::0           36                       # Occupied blocks per task id
system.l2.tags.age_task_id_blocks_1024::1          324                       # Occupied blocks per task id
system.l2.tags.age_task_id_blocks_1024::2         1688                       # Occupied blocks per task id
system.l2.tags.occ_task_id_percent::1024            1                       # Percentage of cache occupancy per task id
system.l2.tags.tag_accesses                   3948898                       # Number of tag accesses
system.l2.tags.data_accesses                  3948898                       # Number of data accesses
system.l2.tags.power_state.pwrStateResidencyTicks::UNDEFINED 371605492000                       # Cumulative time (in ticks) in various power states
system.mem_ctrls.avgPriority_.writebacks::samples   5255388.00                       # Average QoS priority value for accepted requests
system.mem_ctrls.avgPriority_.cpu.inst::samples      1084.00                       # Average QoS priority value for accepted requests
system.mem_ctrls.avgPriority_.cpu.data::samples   5264112.00                       # Average QoS priority value for accepted requests
system.mem_ctrls.priorityMinLatency      0.000000018750                       # per QoS priority minimum request to response latency (s)
system.mem_ctrls.priorityMaxLatency      0.010633054750                       # per QoS priority maximum request to response latency (s)
system.mem_ctrls.numReadWriteTurnArounds       263945                       # Number of turnarounds from READ to WRITE
system.mem_ctrls.numWriteReadTurnArounds       263946                       # Number of turnarounds from WRITE to READ
system.mem_ctrls.numStayReadState             7970178                       # Number of times bus staying in READ state
system.mem_ctrls.numStayWriteState            5010894                       # Number of times bus staying in WRITE state
system.mem_ctrls.readReqs                     1316299                       # Number of read requests accepted
system.mem_ctrls.writeReqs                    1313847                       # Number of write requests accepted
system.mem_ctrls.readBursts                   5265196                       # Number of controller read bursts, including those serviced by the write queue
system.mem_ctrls.writeBursts                  5255388                       # Number of controller write bursts, including those merged in the write queue
system.mem_ctrls.servicedByWrQ                      0                       # Number of controller read bursts serviced by the write queue
system.mem_ctrls.mergedWrBursts                     0                       # Number of controller write bursts merged with an existing one
system.mem_ctrls.neitherReadNorWriteReqs            0                       # Number of requests that are neither read nor write
system.mem_ctrls.avgRdQLen                       4.01                       # Average read queue length when enqueuing
system.mem_ctrls.avgWrQLen                      27.03                       # Average write queue length when enqueuing
system.mem_ctrls.numRdRetry                         0                       # Number of times read queue was full causing retry
system.mem_ctrls.numWrRetry                         0                       # Number of times write queue was full causing retry
system.mem_ctrls.readPktSize::0                     0                       # Read request sizes (log2)
system.mem_ctrls.readPktSize::1                     0                       # Read request sizes (log2)
system.mem_ctrls.readPktSize::2                     0                       # Read request sizes (log2)
system.mem_ctrls.readPktSize::3                     0                       # Read request sizes (log2)
system.mem_ctrls.readPktSize::4                     0                       # Read request sizes (log2)
system.mem_ctrls.readPktSize::5                     0                       # Read request sizes (log2)
system.mem_ctrls.readPktSize::6               5265196                       # Read request sizes (log2)
system.mem_ctrls.readPktSize::7                     0                       # Read request sizes (log2)
system.mem_ctrls.readPktSize::8                     0                       # Read request sizes (log2)
system.mem_ctrls.writePktSize::0                    0                       # Write request sizes (log2)
system.mem_ctrls.writePktSize::1                    0                       # Write request sizes (log2)
system.mem_ctrls.writePktSize::2                    0                       # Write request sizes (log2)
system.mem_ctrls.writePktSize::3                    0                       # Write request sizes (log2)
system.mem_ctrls.writePktSize::4                    0                       # Write request sizes (log2)
system.mem_ctrls.writePktSize::5                    0                       # Write request sizes (log2)
system.mem_ctrls.writePktSize::6              5255388                       # Write request sizes (log2)
system.mem_ctrls.writePktSize::7                    0                       # Write request sizes (log2)
system.mem_ctrls.writePktSize::8                    0                       # Write request sizes (log2)
system.mem_ctrls.rdQLenPdf::0                 1316063                       # What read queue length does an incoming req see
system.mem_ctrls.rdQLenPdf::1                 1316064                       # What read queue length does an incoming req see
system.mem_ctrls.rdQLenPdf::2                 1316165                       # What read queue length does an incoming req see
system.mem_ctrls.rdQLenPdf::3                 1316166                       # What read queue length does an incoming req see
system.mem_ctrls.rdQLenPdf::4                     231                       # What read queue length does an incoming req see
system.mem_ctrls.rdQLenPdf::5                     230                       # What read queue length does an incoming req see
system.mem_ctrls.rdQLenPdf::6                     129                       # What read queue length does an incoming req see
system.mem_ctrls.rdQLenPdf::7                     130                       # What read queue length does an incoming req see
[...]
system.mem_ctrls.dram.bw_write::.writebacks    905112651                       # Write bandwidth from this memory (bytes/s)
system.mem_ctrls.dram.bw_write::total       905112651                       # Write bandwidth from this memory (bytes/s)
system.mem_ctrls.dram.bw_total::.writebacks    905112651                       # Total bandwidth to/from this memory (bytes/s)
system.mem_ctrls.dram.bw_total::.cpu.inst       186693                       # Total bandwidth to/from this memory (bytes/s)
system.mem_ctrls.dram.bw_total::.cpu.data    906615148                       # Total bandwidth to/from this memory (bytes/s)
system.mem_ctrls.dram.bw_total::total      1811914491                       # Total bandwidth to/from this memory (bytes/s)
system.mem_ctrls.dram.readBursts              5265196                       # Number of DRAM read bursts
system.mem_ctrls.dram.writeBursts             5255373                       # Number of DRAM write bursts
system.mem_ctrls.dram.perBankRdBursts::0       329140                       # Per bank write bursts
system.mem_ctrls.dram.perBankRdBursts::1       329220                       # Per bank write bursts
system.mem_ctrls.dram.perBankRdBursts::2       329228                       # Per bank write bursts
system.mem_ctrls.dram.perBankRdBursts::3       329096                       # Per bank write bursts
system.mem_ctrls.dram.perBankRdBursts::4       329060                       # Per bank write bursts
system.mem_ctrls.dram.perBankRdBursts::5       329136                       # Per bank write bursts
system.mem_ctrls.dram.perBankRdBursts::6       329160                       # Per bank write bursts
system.mem_ctrls.dram.perBankRdBursts::7       328988                       # Per bank write bursts
system.mem_ctrls.dram.perBankRdBursts::8       328940                       # Per bank write bursts
system.mem_ctrls.dram.perBankRdBursts::9       328916                       # Per bank write bursts
system.mem_ctrls.dram.perBankRdBursts::10       328956                       # Per bank write bursts
system.mem_ctrls.dram.perBankRdBursts::11       329064                       # Per bank write bursts
system.mem_ctrls.dram.perBankRdBursts::12       329120                       # Per bank write bursts
system.mem_ctrls.dram.perBankRdBursts::13       329112                       # Per bank write bursts
system.mem_ctrls.dram.perBankRdBursts::14       329192                       # Per bank write bursts
system.mem_ctrls.dram.perBankRdBursts::15       328868                       # Per bank write bursts
system.mem_ctrls.dram.perBankWrBursts::0       328428                       # Per bank write bursts
system.mem_ctrls.dram.perBankWrBursts::1       328585                       # Per bank write bursts
system.mem_ctrls.dram.perBankWrBursts::2       328624                       # Per bank write bursts
system.mem_ctrls.dram.perBankWrBursts::3       328516                       # Per bank write bursts
system.mem_ctrls.dram.perBankWrBursts::4       328528                       # Per bank write bursts
system.mem_ctrls.dram.perBankWrBursts::5       328544                       # Per bank write bursts
system.mem_ctrls.dram.perBankWrBursts::6       328552                       # Per bank write bursts
system.mem_ctrls.dram.perBankWrBursts::7       328436                       # Per bank write bursts
system.mem_ctrls.dram.perBankWrBursts::8       328320                       # Per bank write bursts
system.mem_ctrls.dram.perBankWrBursts::9       328320                       # Per bank write bursts
system.mem_ctrls.dram.perBankWrBursts::10       328320                       # Per bank write bursts
system.mem_ctrls.dram.perBankWrBursts::11       328436                       # Per bank write bursts
system.mem_ctrls.dram.perBankWrBursts::12       328496                       # Per bank write bursts
system.mem_ctrls.dram.perBankWrBursts::13       328476                       # Per bank write bursts
system.mem_ctrls.dram.perBankWrBursts::14       328492                       # Per bank write bursts
system.mem_ctrls.dram.perBankWrBursts::15       328300                       # Per bank write bursts
system.mem_ctrls.dram.totQLat            143212572000                       # Total ticks spent queuing
system.mem_ctrls.dram.totBusLat           26325980000                       # Total ticks spent in databus transfers
system.mem_ctrls.dram.totMemAccLat       241934997000                       # Total ticks spent from burst creation until serviced by the DRAM
system.mem_ctrls.dram.avgQLat                27199.86                       # Average queueing delay per DRAM burst
system.mem_ctrls.dram.avgBusLat               5000.00                       # Average bus latency per DRAM burst
system.mem_ctrls.dram.avgMemAccLat           45949.86                       # Average memory access latency per DRAM burst
system.mem_ctrls.dram.readRowHits             4740429                       # Number of row buffer hits during reads
system.mem_ctrls.dram.writeRowHits            4719144                       # Number of row buffer hits during writes
system.mem_ctrls.dram.readRowHitRate            90.03                       # Row buffer hit rate for reads
system.mem_ctrls.dram.writeRowHitRate           89.80                       # Row buffer hit rate for writes
system.mem_ctrls.dram.bytesPerActivate::samples      1060995                       # Bytes accessed per row activation
system.mem_ctrls.dram.bytesPerActivate::mean   634.608231                       # Bytes accessed per row activation
system.mem_ctrls.dram.bytesPerActivate::gmean   504.667933                       # Bytes accessed per row activation
system.mem_ctrls.dram.bytesPerActivate::stdev   371.928441                       # Bytes accessed per row activation
system.mem_ctrls.dram.bytesPerActivate::0-127        23325      2.20%      2.20% # Bytes accessed per row activation
system.mem_ctrls.dram.bytesPerActivate::128-255        17977      1.69%      3.89% # Bytes accessed per row activation
system.mem_ctrls.dram.bytesPerActivate::256-383       433372     40.85%     44.74% # Bytes accessed per row activation
system.mem_ctrls.dram.bytesPerActivate::384-511         7968      0.75%     45.49% # Bytes accessed per row activation
system.mem_ctrls.dram.bytesPerActivate::512-639        50016      4.71%     50.20% # Bytes accessed per row activation
system.mem_ctrls.dram.bytesPerActivate::640-767         7976      0.75%     50.96% # Bytes accessed per row activation
system.mem_ctrls.dram.bytesPerActivate::768-895        42282      3.99%     54.94% # Bytes accessed per row activation
system.mem_ctrls.dram.bytesPerActivate::896-1023        13661      1.29%     56.23% # Bytes accessed per row activation
system.mem_ctrls.dram.bytesPerActivate::1024-1151       464418     43.77%    100.00% # Bytes accessed per row activation
system.mem_ctrls.dram.bytesPerActivate::total      1060995                       # Bytes accessed per row activation
system.mem_ctrls.dram.bytesRead             336972544                       # Total number of bytes read from DRAM
system.mem_ctrls.dram.bytesWritten          336343872                       # Total number of bytes written to DRAM
system.mem_ctrls.dram.avgRdBW              906.801840                       # Average DRAM read bandwidth in MiBytes/s
system.mem_ctrls.dram.avgWrBW              905.110068                       # Average DRAM write bandwidth in MiBytes/s
system.mem_ctrls.dram.peakBW                 12800.00                       # Theoretical peak bandwidth in MiByte/s
system.mem_ctrls.dram.busUtil                   14.16                       # Data bus utilization in percentage
system.mem_ctrls.dram.busUtilRead                7.08                       # Data bus utilization in percentage for reads
system.mem_ctrls.dram.busUtilWrite               7.07                       # Data bus utilization in percentage for writes
system.mem_ctrls.dram.pageHitRate               89.92                       # Row buffer hit rate, read and write combined
system.mem_ctrls.dram.power_state.pwrStateResidencyTicks::UNDEFINED 371605492000                       # Cumulative time (in ticks) in various power states
system.mem_ctrls.dram.rank0.actEnergy      3788334060                       # Energy for activate commands per rank (pJ)
system.mem_ctrls.dram.rank0.preEnergy      2013539715                       # Energy for precharge commands per rank (pJ)
system.mem_ctrls.dram.rank0.readEnergy    18799819920                       # Energy for read commands per rank (pJ)
system.mem_ctrls.dram.rank0.writeEnergy   13719245760                       # Energy for write commands per rank (pJ)
system.mem_ctrls.dram.rank0.refreshEnergy 29333694000.000004                       # Energy for refresh commands per rank (pJ)
system.mem_ctrls.dram.rank0.actBackEnergy  84942068040                       # Energy for active background per rank (pJ)
system.mem_ctrls.dram.rank0.preBackEnergy  71166346560                       # Energy for precharge background per rank (pJ)
system.mem_ctrls.dram.rank0.actPowerDownEnergy            0                       # Energy for active power-down per rank (pJ)
system.mem_ctrls.dram.rank0.prePowerDownEnergy            0                       # Energy for precharge power-down per rank (pJ)
system.mem_ctrls.dram.rank0.selfRefreshEnergy            0                       # Energy for self refresh per rank (pJ)
system.mem_ctrls.dram.rank0.totalEnergy  223763048055                       # Total energy per rank (pJ)
system.mem_ctrls.dram.rank0.averagePower   602.152156                       # Core power per rank (mW)
system.mem_ctrls.dram.rank0.totalIdleTime            0                       # Total Idle time Per DRAM Rank
system.mem_ctrls.dram.rank0.pwrStateTime::IDLE 181271142750                       # Time in different power states
system.mem_ctrls.dram.rank0.pwrStateTime::REF  12408500000                       # Time in different power states
system.mem_ctrls.dram.rank0.pwrStateTime::SREF            0                       # Time in different power states
system.mem_ctrls.dram.rank0.pwrStateTime::PRE_PDN            0                       # Time in different power states
system.mem_ctrls.dram.rank0.pwrStateTime::ACT 177925849250                       # Time in different power states
system.mem_ctrls.dram.rank0.pwrStateTime::ACT_PDN            0                       # Time in different power states
system.mem_ctrls.dram.rank1.actEnergy      3787177380                       # Energy for activate commands per rank (pJ)
system.mem_ctrls.dram.rank1.preEnergy      2012932515                       # Energy for precharge commands per rank (pJ)
system.mem_ctrls.dram.rank1.readEnergy    18793679520                       # Energy for read commands per rank (pJ)
system.mem_ctrls.dram.rank1.writeEnergy   13713775200                       # Energy for write commands per rank (pJ)
system.mem_ctrls.dram.rank1.refreshEnergy 29333694000.000004                       # Energy for refresh commands per rank (pJ)
system.mem_ctrls.dram.rank1.actBackEnergy  84900050490                       # Energy for active background per rank (pJ)
system.mem_ctrls.dram.rank1.preBackEnergy  71201729760                       # Energy for precharge background per rank (pJ)
system.mem_ctrls.dram.rank1.actPowerDownEnergy            0                       # Energy for active power-down per rank (pJ)
system.mem_ctrls.dram.rank1.prePowerDownEnergy            0                       # Energy for precharge power-down per rank (pJ)
system.mem_ctrls.dram.rank1.selfRefreshEnergy            0                       # Energy for self refresh per rank (pJ)
system.mem_ctrls.dram.rank1.totalEnergy  223743038865                       # Total energy per rank (pJ)
system.mem_ctrls.dram.rank1.averagePower   602.098310                       # Core power per rank (mW)
system.mem_ctrls.dram.rank1.totalIdleTime            0                       # Total Idle time Per DRAM Rank
system.mem_ctrls.dram.rank1.pwrStateTime::IDLE 181362629500                       # Time in different power states
system.mem_ctrls.dram.rank1.pwrStateTime::REF  12408500000                       # Time in different power states
system.mem_ctrls.dram.rank1.pwrStateTime::SREF            0                       # Time in different power states
system.mem_ctrls.dram.rank1.pwrStateTime::PRE_PDN            0                       # Time in different power states
system.mem_ctrls.dram.rank1.pwrStateTime::ACT 177834362500                       # Time in different power states
system.mem_ctrls.dram.rank1.pwrStateTime::ACT_PDN            0                       # Time in different power states
system.mem_ctrls.power_state.pwrStateResidencyTicks::UNDEFINED 371605492000                       # Cumulative time (in ticks) in various power states
system.membus.trans_dist::ReadResp                422                       # Transaction distribution
system.membus.trans_dist::WritebackDirty      1313847                       # Transaction distribution
system.membus.trans_dist::CleanEvict              208                       # Transaction distribution
system.membus.trans_dist::ReadExReq           1315877                       # Transaction distribution
system.membus.trans_dist::ReadExResp          1315877                       # Transaction distribution
system.membus.trans_dist::ReadSharedReq           422                       # Transaction distribution
system.membus.pkt_count_system.l2.mem_side_port::system.mem_ctrls.port      3946653                       # Packet count per connected requestor and responder (bytes)
system.membus.pkt_count::total                3946653                       # Packet count per connected requestor and responder (bytes)
system.membus.pkt_size_system.l2.mem_side_port::system.mem_ctrls.port    673317376                       # Cumulative packet size per connected requestor and responder (bytes)
system.membus.pkt_size::total               673317376                       # Cumulative packet size per connected requestor and responder (bytes)
system.membus.snoops                                0                       # Total snoops (count)
system.membus.snoopTraffic                          0                       # Total snoop traffic (bytes)
system.membus.snoop_fanout::samples           1316299                       # Request fanout histogram
system.membus.snoop_fanout::mean                    0                       # Request fanout histogram
system.membus.snoop_fanout::stdev                   0                       # Request fanout histogram
system.membus.snoop_fanout::underflows              0      0.00%      0.00% # Request fanout histogram
system.membus.snoop_fanout::0                 1316299    100.00%    100.00% # Request fanout histogram
system.membus.snoop_fanout::1                       0      0.00%    100.00% # Request fanout histogram
system.membus.snoop_fanout::overflows               0      0.00%    100.00% # Request fanout histogram
system.membus.snoop_fanout::min_value               0                       # Request fanout histogram
system.membus.snoop_fanout::max_value               0                       # Request fanout histogram
system.membus.snoop_fanout::total             1316299                       # Request fanout histogram
system.membus.power_state.pwrStateResidencyTicks::UNDEFINED 371605492000                       # Cumulative time (in ticks) in various power states
system.membus.reqLayer0.occupancy         23651906000                       # Layer occupancy (ticks)
system.membus.reqLayer0.utilization               6.4                       # Layer utilization (%)
system.membus.respLayer1.occupancy        22794521750                       # Layer occupancy (ticks)
system.membus.respLayer1.utilization              6.1                       # Layer utilization (%)
system.tol2bus.trans_dist::ReadResp               529                       # Transaction distribution
system.tol2bus.trans_dist::WritebackDirty      2629509                       # Transaction distribution
system.tol2bus.trans_dist::WritebackClean          152                       # Transaction distribution
system.tol2bus.trans_dist::CleanEvict             823                       # Transaction distribution
system.tol2bus.trans_dist::ReadExReq          1315890                       # Transaction distribution
system.tol2bus.trans_dist::ReadExResp         1315890                       # Transaction distribution
system.tol2bus.trans_dist::ReadCleanReq           336                       # Transaction distribution
system.tol2bus.trans_dist::ReadSharedReq          193                       # Transaction distribution
system.tol2bus.pkt_count_system.cpu.icache.mem_side_port::system.l2.cpu_side_port          824                       # Packet count per connected requestor and responder (bytes)
system.tol2bus.pkt_count_system.cpu.dcache.mem_side_port::system.l2.cpu_side_port      3947993                       # Packet count per connected requestor and responder (bytes)
system.tol2bus.pkt_count::total               3948817                       # Packet count per connected requestor and responder (bytes)
system.tol2bus.pkt_size_system.cpu.icache.mem_side_port::system.l2.cpu_side_port       124928                       # Cumulative packet size per connected requestor and responder (bytes)
system.tol2bus.pkt_size_system.cpu.dcache.mem_side_port::system.l2.cpu_side_port    673726720                       # Cumulative packet size per connected requestor and responder (bytes)
system.tol2bus.pkt_size::total              673851648                       # Cumulative packet size per connected requestor and responder (bytes)
system.tol2bus.snoops                         1314505                       # Total snoops (count)
system.tol2bus.snoopTraffic                 336344832                       # Total snoop traffic (bytes)
system.tol2bus.snoop_fanout::samples          2630924                       # Request fanout histogram
system.tol2bus.snoop_fanout::mean            0.000201                       # Request fanout histogram
system.tol2bus.snoop_fanout::stdev           0.014431                       # Request fanout histogram
system.tol2bus.snoop_fanout::underflows             0      0.00%      0.00% # Request fanout histogram
system.tol2bus.snoop_fanout::0                2630403     99.98%     99.98% # Request fanout histogram
system.tol2bus.snoop_fanout::1                    512      0.02%    100.00% # Request fanout histogram
system.tol2bus.snoop_fanout::2                      9      0.00%    100.00% # Request fanout histogram
system.tol2bus.snoop_fanout::overflows              0      0.00%    100.00% # Request fanout histogram
system.tol2bus.snoop_fanout::min_value              0                       # Request fanout histogram
system.tol2bus.snoop_fanout::max_value              2                       # Request fanout histogram
system.tol2bus.snoop_fanout::total            2630924                       # Request fanout histogram
system.tol2bus.power_state.pwrStateResidencyTicks::UNDEFINED 371605492000                       # Cumulative time (in ticks) in various power states
system.tol2bus.reqLayer0.occupancy        13158910000                       # Layer occupancy (ticks)
system.tol2bus.reqLayer0.utilization              3.5                       # Layer utilization (%)
system.tol2bus.respLayer0.occupancy           3024000                       # Layer occupancy (ticks)
system.tol2bus.respLayer0.utilization             0.0                       # Layer utilization (%)
system.tol2bus.respLayer1.occupancy       11844753993                       # Layer occupancy (ticks)
system.tol2bus.respLayer1.utilization             3.2                       # Layer utilization (%)
system.voltage_domain.voltage                       1                       # Voltage in Volts

---------- End Simulation Statistics   ----------
