
---------- Begin Simulation Statistics ----------
final_tick                               166955099000                       # Number of ticks from beginning of simulation (restored from checkpoints and never reset)
host_inst_rate                                 403564                       # Simulator instruction rate (inst/s)
host_mem_usage                                 662172                       # Number of bytes of host memory used
host_op_rate                                   404356                       # Simulator op (including micro ops) rate (op/s)
host_seconds                                   247.79                       # Real time elapsed on the host
host_tick_rate                              673770635                       # Simulator tick rate (ticks/s)
sim_freq                                 1000000000000                       # Frequency of simulated ticks
sim_insts                                   100000001                       # Number of instructions simulated
sim_ops                                     100196375                       # Number of ops (including micro ops) simulated
sim_seconds                                  0.166955                       # Number of seconds simulated
sim_ticks                                166955099000                       # Number of ticks simulated
system.cpu.committedInsts                   100000001                       # Number of instructions committed
system.cpu.committedOps                     100196375                       # Number of ops (including micro ops) committed
system.cpu.cpi                               1.669551                       # CPI: cycles per instruction
system.cpu.discardedOps                        191297                       # Number of ops (including micro ops) which were discarded before commit
system.cpu.idleCycles                        34064703                       # Total number of cycles that the object has spent stopped
system.cpu.ipc                               0.598963                       # IPC: instructions per cycle
system.cpu.numCycles                        166955099                       # number of cpu cycles simulated
system.cpu.numFetchSuspends                         0                       # Number of times Execute suspended instruction fetching
system.cpu.numWorkItemsCompleted                    0                       # number of work items this cpu completed
system.cpu.numWorkItemsStarted                      0                       # number of work items this cpu started
system.cpu.op_class_0::No_OpClass                   0      0.00%      0.00% # Class of committed instruction
system.cpu.op_class_0::IntAlu                46526221     46.44%     46.44% # Class of committed instruction
system.cpu.op_class_0::IntMult                  20720      0.02%     46.46% # Class of committed instruction
system.cpu.op_class_0::IntDiv                       0      0.00%     46.46% # Class of committed instruction
system.cpu.op_class_0::FloatAdd                     0      0.00%     46.46% # Class of committed instruction
system.cpu.op_class_0::FloatCmp                     0      0.00%     46.46% # Class of committed instruction
system.cpu.op_class_0::FloatCvt                     0      0.00%     46.46% # Class of committed instruction
system.cpu.op_class_0::FloatMult                    0      0.00%     46.46% # Class of committed instruction
system.cpu.op_class_0::FloatMultAcc                 0      0.00%     46.46% # Class of committed instruction
system.cpu.op_class_0::FloatDiv                     0      0.00%     46.46% # Class of committed instruction
system.cpu.op_class_0::FloatMisc                    0      0.00%     46.46% # Class of committed instruction
system.cpu.op_class_0::FloatSqrt                    0      0.00%     46.46% # Class of committed instruction
system.cpu.op_class_0::SimdAdd                      0      0.00%     46.46% # Class of committed instruction
system.cpu.op_class_0::SimdAddAcc                   0      0.00%     46.46% # Class of committed instruction
system.cpu.op_class_0::SimdAlu                      0      0.00%     46.46% # Class of committed instruction
system.cpu.op_class_0::SimdCmp                      0      0.00%     46.46% # Class of committed instruction
system.cpu.op_class_0::SimdCvt                      0      0.00%     46.46% # Class of committed instruction
system.cpu.op_class_0::SimdMisc                     0      0.00%     46.46% # Class of committed instruction
system.cpu.op_class_0::SimdMult                     0      0.00%     46.46% # Class of committed instruction
system.cpu.op_class_0::SimdMultAcc                  0      0.00%     46.46% # Class of committed instruction
system.cpu.op_class_0::SimdShift                    0      0.00%     46.46% # Class of committed instruction
system.cpu.op_class_0::SimdShiftAcc                 0      0.00%     46.46% # Class of committed instruction
system.cpu.op_class_0::SimdDiv                      0      0.00%     46.46% # Class of committed instruction
system.cpu.op_class_0::SimdSqrt                     0      0.00%     46.46% # Class of committed instruction
system.cpu.op_class_0::SimdFloatAdd                 0      0.00%     46.46% # Class of committed instruction
system.cpu.op_class_0::SimdFloatAlu                 0      0.00%     46.46% # Class of committed instruction
system.cpu.op_class_0::SimdFloatCmp                 0      0.00%     46.46% # Class of committed instruction
system.cpu.op_class_0::SimdFloatCvt                 0      0.00%     46.46% # Class of committed instruction
system.cpu.op_class_0::SimdFloatDiv                 0      0.00%     46.46% # Class of committed instruction
system.cpu.op_class_0::SimdFloatMisc               18      0.00%     46.46% # Class of committed instruction
system.cpu.op_class_0::SimdFloatMult                0      0.00%     46.46% # Class of committed instruction
system.cpu.op_class_0::SimdFloatMultAcc             0      0.00%     46.46% # Class of committed instruction
system.cpu.op_class_0::SimdFloatSqrt                0      0.00%     46.46% # Class of committed instruction
system.cpu.op_class_0::SimdReduceAdd                0      0.00%     46.46% # Class of committed instruction
system.cpu.op_class_0::SimdReduceAlu                0      0.00%     46.46% # Class of committed instruction
system.cpu.op_class_0::SimdReduceCmp                0      0.00%     46.46% # Class of committed instruction
system.cpu.op_class_0::SimdFloatReduceAdd            0      0.00%     46.46% # Class of committed instruction
system.cpu.op_class_0::SimdFloatReduceCmp            0      0.00%     46.46% # Class of committed instruction
system.cpu.op_class_0::SimdAes                      0      0.00%     46.46% # Class of committed instruction
system.cpu.op_class_0::SimdAesMix                   0      0.00%     46.46% # Class of committed instruction
system.cpu.op_class_0::SimdSha1Hash                 0      0.00%     46.46% # Class of committed instruction
system.cpu.op_class_0::SimdSha1Hash2                0      0.00%     46.46% # Class of committed instruction
system.cpu.op_class_0::SimdSha256Hash               0      0.00%     46.46% # Class of committed instruction
system.cpu.op_class_0::SimdSha256Hash2              0      0.00%     46.46% # Class of committed instruction
system.cpu.op_class_0::SimdShaSigma2                0      0.00%     46.46% # Class of committed instruction
system.cpu.op_class_0::SimdShaSigma3                0      0.00%     46.46% # Class of committed instruction
system.cpu.op_class_0::SimdPredAlu                  0      0.00%     46.46% # Class of committed instruction
system.cpu.op_class_0::MemRead               42691041     42.61%     89.06% # Class of committed instruction
system.cpu.op_class_0::MemWrite              10958375     10.94%    100.00% # Class of committed instruction
system.cpu.op_class_0::FloatMemRead                 0      0.00%    100.00% # Class of committed instruction
system.cpu.op_class_0::FloatMemWrite                0      0.00%    100.00% # Class of committed instruction
system.cpu.op_class_0::IprAccess                    0      0.00%    100.00% # Class of committed instruction
system.cpu.op_class_0::InstPrefetch                 0      0.00%    100.00% # Class of committed instruction
system.cpu.op_class_0::total                100196375                       # Class of committed instruction
system.cpu.tickCycles                       132890396                       # Number of cycles that the object actually ticked
system.cpu.workload.numSyscalls                    84                       # Number of system calls
system.membus.snoop_filter.hit_multi_requests            0                       # Number of requests hitting in the snoop filter with multiple (>1) holders of the requested data.
system.membus.snoop_filter.hit_multi_snoops            0                       # Number of snoops hitting in the snoop filter with multiple (>1) holders of the requested data.
system.membus.snoop_filter.hit_single_requests       278560                       # Number of requests hitting in the snoop filter with a single holder of the requested data.
system.membus.snoop_filter.hit_single_snoops            0                       # Number of snoops hitting in the snoop filter with a single holder of the requested data.
system.membus.snoop_filter.tot_requests        565872                       # Total number of requests made to the snoop filter.
system.membus.snoop_filter.tot_snoops               0                       # Total number of snoops made to the snoop filter.
system.tol2bus.snoop_filter.hit_multi_requests          707                       # Number of requests hitting in the snoop filter with multiple (>1) holders of the requested data.
system.tol2bus.snoop_filter.hit_multi_snoops           20                       # Number of snoops hitting in the snoop filter with multiple (>1) holders of the requested data.
system.tol2bus.snoop_filter.hit_single_requests       777544                       # Number of requests hitting in the snoop filter with a single holder of the requested data.
system.tol2bus.snoop_filter.hit_single_snoops        14265                       # Number of snoops hitting in the snoop filter with a single holder of the requested data.
system.tol2bus.snoop_filter.tot_requests      1556705                       # Total number of requests made to the snoop filter.
system.tol2bus.snoop_filter.tot_snoops          14285                       # Total number of snoops made to the snoop filter.
system.clk_domain.clock                          1000                       # Clock period in ticks
system.cpu.branchPred.lookups                 4485478                       # Number of BP lookups
system.cpu.branchPred.condPredicted           3734904                       # Number of conditional branches predicted
system.cpu.branchPred.condIncorrect             80994                       # Number of conditional branches incorrect
system.cpu.branchPred.BTBLookups              2103968                       # Number of BTB lookups
system.cpu.branchPred.BTBHits                 2101936                       # Number of BTB hits
system.cpu.branchPred.BTBHitPct             99.903421                       # BTB Hit Percentage
system.cpu.branchPred.RASUsed                   65404                       # Number of times the RAS was used to get a target.
system.cpu.branchPred.RASIncorrect                 14                       # Number of incorrect RAS predictions.
system.cpu.branchPred.indirectLookups             708                       # Number of indirect predictor lookups.
system.cpu.branchPred.indirectHits                288                       # Number of indirect target hits.
system.cpu.branchPred.indirectMisses              420                       # Number of indirect misses.
system.cpu.branchPred.indirectMispredicted          169                       # Number of mispredicted indirect branches.
system.cpu.dcache.demand_hits::.cpu.data     51244432                       # number of demand (read+write) hits
system.cpu.dcache.demand_hits::total         51244432                       # number of demand (read+write) hits
system.cpu.dcache.overall_hits::.cpu.data     51244899                       # number of overall hits
system.cpu.dcache.overall_hits::total        51244899                       # number of overall hits
system.cpu.dcache.demand_misses::.cpu.data       825951                       # number of demand (read+write) misses
system.cpu.dcache.demand_misses::total         825951                       # number of demand (read+write) misses
system.cpu.dcache.overall_misses::.cpu.data       833903                       # number of overall misses
system.cpu.dcache.overall_misses::total        833903                       # number of overall misses
system.cpu.dcache.demand_miss_latency::.cpu.data  45988613954                       # number of demand (read+write) miss cycles
system.cpu.dcache.demand_miss_latency::total  45988613954                       # number of demand (read+write) miss cycles
system.cpu.dcache.overall_miss_latency::.cpu.data  45988613954                       # number of overall miss cycles
system.cpu.dcache.overall_miss_latency::total  45988613954                       # number of overall miss cycles
system.cpu.dcache.demand_accesses::.cpu.data     52070383                       # number of demand (read+write) accesses
system.cpu.dcache.demand_accesses::total     52070383                       # number of demand (read+write) accesses
system.cpu.dcache.overall_accesses::.cpu.data     52078802                       # number of overall (read+write) accesses
system.cpu.dcache.overall_accesses::total     52078802                       # number of overall (read+write) accesses
system.cpu.dcache.demand_miss_rate::.cpu.data     0.015862                       # miss rate for demand accesses
system.cpu.dcache.demand_miss_rate::total     0.015862                       # miss rate for demand accesses
system.cpu.dcache.overall_miss_rate::.cpu.data     0.016012                       # miss rate for overall accesses
system.cpu.dcache.overall_miss_rate::total     0.016012                       # miss rate for overall accesses
system.cpu.dcache.demand_avg_miss_latency::.cpu.data 55679.591106                       # average overall miss latency
system.cpu.dcache.demand_avg_miss_latency::total 55679.591106                       # average overall miss latency
system.cpu.dcache.overall_avg_miss_latency::.cpu.data 55148.637136                       # average overall miss latency
system.cpu.dcache.overall_avg_miss_latency::total 55148.637136                       # average overall miss latency
system.cpu.dcache.blocked_cycles::no_mshrs        95518                       # number of cycles access was blocked
system.cpu.dcache.blocked_cycles::no_targets            0                       # number of cycles access was blocked
system.cpu.dcache.blocked::no_mshrs              3610                       # number of cycles access was blocked
system.cpu.dcache.blocked::no_targets               0                       # number of cycles access was blocked
system.cpu.dcache.avg_blocked_cycles::no_mshrs    26.459280                       # average number of cycles each access was blocked
system.cpu.dcache.avg_blocked_cycles::no_targets          nan                       # average number of cycles each access was blocked
system.cpu.dcache.writebacks::.writebacks       677804                       # number of writebacks
system.cpu.dcache.writebacks::total            677804                       # number of writebacks
system.cpu.dcache.demand_mshr_hits::.cpu.data        55431                       # number of demand (read+write) MSHR hits
system.cpu.dcache.demand_mshr_hits::total        55431                       # number of demand (read+write) MSHR hits
system.cpu.dcache.overall_mshr_hits::.cpu.data        55431                       # number of overall MSHR hits
system.cpu.dcache.overall_mshr_hits::total        55431                       # number of overall MSHR hits
system.cpu.dcache.demand_mshr_misses::.cpu.data       770520                       # number of demand (read+write) MSHR misses
system.cpu.dcache.demand_mshr_misses::total       770520                       # number of demand (read+write) MSHR misses
system.cpu.dcache.overall_mshr_misses::.cpu.data       778466                       # number of overall MSHR misses
system.cpu.dcache.overall_mshr_misses::total       778466                       # number of overall MSHR misses
system.cpu.dcache.demand_mshr_miss_latency::.cpu.data  42692589000                       # number of demand (read+write) MSHR miss cycles
system.cpu.dcache.demand_mshr_miss_latency::total  42692589000                       # number of demand (read+write) MSHR miss cycles
system.cpu.dcache.overall_mshr_miss_latency::.cpu.data  43494904999                       # number of overall MSHR miss cycles
system.cpu.dcache.overall_mshr_miss_latency::total  43494904999                       # number of overall MSHR miss cycles
system.cpu.dcache.demand_mshr_miss_rate::.cpu.data     0.014798                       # mshr miss rate for demand accesses
system.cpu.dcache.demand_mshr_miss_rate::total     0.014798                       # mshr miss rate for demand accesses
system.cpu.dcache.overall_mshr_miss_rate::.cpu.data     0.014948                       # mshr miss rate for overall accesses
system.cpu.dcache.overall_mshr_miss_rate::total     0.014948                       # mshr miss rate for overall accesses
system.cpu.dcache.demand_avg_mshr_miss_latency::.cpu.data 55407.502725                       # average overall mshr miss latency
system.cpu.dcache.demand_avg_mshr_miss_latency::total 55407.502725                       # average overall mshr miss latency
system.cpu.dcache.overall_avg_mshr_miss_latency::.cpu.data 55872.581460                       # average overall mshr miss latency
system.cpu.dcache.overall_avg_mshr_miss_latency::total 55872.581460                       # average overall mshr miss latency
system.cpu.dcache.replacements                 777442                       # number of replacements
system.cpu.dcache.ReadReq_hits::.cpu.data     40670001                       # number of ReadReq hits
system.cpu.dcache.ReadReq_hits::total        40670001                       # number of ReadReq hits
system.cpu.dcache.ReadReq_misses::.cpu.data       451142                       # number of ReadReq misses
system.cpu.dcache.ReadReq_misses::total        451142                       # number of ReadReq misses
system.cpu.dcache.ReadReq_miss_latency::.cpu.data  20333868000                       # number of ReadReq miss cycles
system.cpu.dcache.ReadReq_miss_latency::total  20333868000                       # number of ReadReq miss cycles
system.cpu.dcache.ReadReq_accesses::.cpu.data     41121143                       # number of ReadReq accesses(hits+misses)
system.cpu.dcache.ReadReq_accesses::total     41121143                       # number of ReadReq accesses(hits+misses)
system.cpu.dcache.ReadReq_miss_rate::.cpu.data     0.010971                       # miss rate for ReadReq accesses
system.cpu.dcache.ReadReq_miss_rate::total     0.010971                       # miss rate for ReadReq accesses
system.cpu.dcache.ReadReq_avg_miss_latency::.cpu.data 45071.990637                       # average ReadReq miss latency
system.cpu.dcache.ReadReq_avg_miss_latency::total 45071.990637                       # average ReadReq miss latency
system.cpu.dcache.ReadReq_mshr_hits::.cpu.data         1921                       # number of ReadReq MSHR hits
system.cpu.dcache.ReadReq_mshr_hits::total         1921                       # number of ReadReq MSHR hits
system.cpu.dcache.ReadReq_mshr_misses::.cpu.data       449221                       # number of ReadReq MSHR misses
system.cpu.dcache.ReadReq_mshr_misses::total       449221                       # number of ReadReq MSHR misses
system.cpu.dcache.ReadReq_mshr_miss_latency::.cpu.data  19332541000                       # number of ReadReq MSHR miss cycles
system.cpu.dcache.ReadReq_mshr_miss_latency::total  19332541000                       # number of ReadReq MSHR miss cycles
system.cpu.dcache.ReadReq_mshr_miss_rate::.cpu.data     0.010924                       # mshr miss rate for ReadReq accesses
system.cpu.dcache.ReadReq_mshr_miss_rate::total     0.010924                       # mshr miss rate for ReadReq accesses
system.cpu.dcache.ReadReq_avg_mshr_miss_latency::.cpu.data 43035.701804                       # average ReadReq mshr miss latency
system.cpu.dcache.ReadReq_avg_mshr_miss_latency::total 43035.701804                       # average ReadReq mshr miss latency
system.cpu.dcache.WriteReq_hits::.cpu.data     10574431                       # number of WriteReq hits
system.cpu.dcache.WriteReq_hits::total       10574431                       # number of WriteReq hits
system.cpu.dcache.WriteReq_misses::.cpu.data       374809                       # number of WriteReq misses
system.cpu.dcache.WriteReq_misses::total       374809                       # number of WriteReq misses
system.cpu.dcache.WriteReq_miss_latency::.cpu.data  25654745954                       # number of WriteReq miss cycles
system.cpu.dcache.WriteReq_miss_latency::total  25654745954                       # number of WriteReq miss cycles
system.cpu.dcache.WriteReq_accesses::.cpu.data     10949240                       # number of WriteReq accesses(hits+misses)
system.cpu.dcache.WriteReq_accesses::total     10949240                       # number of WriteReq accesses(hits+misses)
system.cpu.dcache.WriteReq_miss_rate::.cpu.data     0.034232                       # miss rate for WriteReq accesses
system.cpu.dcache.WriteReq_miss_rate::total     0.034232                       # miss rate for WriteReq accesses
system.cpu.dcache.WriteReq_avg_miss_latency::.cpu.data 68447.518480                       # average WriteReq miss latency
system.cpu.dcache.WriteReq_avg_miss_latency::total 68447.518480                       # average WriteReq miss latency
system.cpu.dcache.WriteReq_mshr_hits::.cpu.data        53510                       # number of WriteReq MSHR hits
system.cpu.dcache.WriteReq_mshr_hits::total        53510                       # number of WriteReq MSHR hits
system.cpu.dcache.WriteReq_mshr_misses::.cpu.data       321299                       # number of WriteReq MSHR misses
system.cpu.dcache.WriteReq_mshr_misses::total       321299                       # number of WriteReq MSHR misses
system.cpu.dcache.WriteReq_mshr_miss_latency::.cpu.data  23360048000                       # number of WriteReq MSHR miss cycles
system.cpu.dcache.WriteReq_mshr_miss_latency::total  23360048000                       # number of WriteReq MSHR miss cycles
system.cpu.dcache.WriteReq_mshr_miss_rate::.cpu.data     0.029344                       # mshr miss rate for WriteReq accesses
system.cpu.dcache.WriteReq_mshr_miss_rate::total     0.029344                       # mshr miss rate for WriteReq accesses
system.cpu.dcache.WriteReq_avg_mshr_miss_latency::.cpu.data 72705.013087                       # average WriteReq mshr miss latency
system.cpu.dcache.WriteReq_avg_mshr_miss_latency::total 72705.013087                       # average WriteReq mshr miss latency
system.cpu.dcache.SoftPFReq_hits::.cpu.data          467                       # number of SoftPFReq hits
system.cpu.dcache.SoftPFReq_hits::total           467                       # number of SoftPFReq hits
system.cpu.dcache.SoftPFReq_misses::.cpu.data         7952                       # number of SoftPFReq misses
system.cpu.dcache.SoftPFReq_misses::total         7952                       # number of SoftPFReq misses
system.cpu.dcache.SoftPFReq_accesses::.cpu.data         8419                       # number of SoftPFReq accesses(hits+misses)
system.cpu.dcache.SoftPFReq_accesses::total         8419                       # number of SoftPFReq accesses(hits+misses)
system.cpu.dcache.SoftPFReq_miss_rate::.cpu.data     0.944530                       # miss rate for SoftPFReq accesses
system.cpu.dcache.SoftPFReq_miss_rate::total     0.944530                       # miss rate for SoftPFReq accesses
system.cpu.dcache.SoftPFReq_mshr_misses::.cpu.data         7946                       # number of SoftPFReq MSHR misses
system.cpu.dcache.SoftPFReq_mshr_misses::total         7946                       # number of SoftPFReq MSHR misses
system.cpu.dcache.SoftPFReq_mshr_miss_latency::.cpu.data    802315999                       # number of SoftPFReq MSHR miss cycles
system.cpu.dcache.SoftPFReq_mshr_miss_latency::total    802315999                       # number of SoftPFReq MSHR miss cycles
system.cpu.dcache.SoftPFReq_mshr_miss_rate::.cpu.data     0.943818                       # mshr miss rate for SoftPFReq accesses
system.cpu.dcache.SoftPFReq_mshr_miss_rate::total     0.943818                       # mshr miss rate for SoftPFReq accesses
system.cpu.dcache.SoftPFReq_avg_mshr_miss_latency::.cpu.data 100971.054493                       # average SoftPFReq mshr miss latency
system.cpu.dcache.SoftPFReq_avg_mshr_miss_latency::total 100971.054493                       # average SoftPFReq mshr miss latency
system.cpu.dcache.LoadLockedReq_hits::.cpu.data           38                       # number of LoadLockedReq hits
system.cpu.dcache.LoadLockedReq_hits::total           38                       # number of LoadLockedReq hits
system.cpu.dcache.LoadLockedReq_accesses::.cpu.data           38                       # number of LoadLockedReq accesses(hits+misses)
system.cpu.dcache.LoadLockedReq_accesses::total           38                       # number of LoadLockedReq accesses(hits+misses)
system.cpu.dcache.StoreCondReq_hits::.cpu.data           38                       # number of StoreCondReq hits
system.cpu.dcache.StoreCondReq_hits::total           38                       # number of StoreCondReq hits
system.cpu.dcache.StoreCondReq_accesses::.cpu.data           38                       # number of StoreCondReq accesses(hits+misses)
system.cpu.dcache.StoreCondReq_accesses::total           38                       # number of StoreCondReq accesses(hits+misses)
system.cpu.dcache.power_state.pwrStateResidencyTicks::UNDEFINED 166955099000                       # Cumulative time (in ticks) in various power states
system.cpu.dcache.tags.tagsinuse          1012.905040                       # Cycle average of tags in use
system.cpu.dcache.tags.total_refs            52023441                       # Total number of references to valid blocks.
system.cpu.dcache.tags.sampled_refs            778466                       # Sample count of references to valid blocks.
system.cpu.dcache.tags.avg_refs             66.828148                       # Average number of references to valid blocks.
system.cpu.dcache.tags.warmup_cycle            223000                       # Cycle when the warmup percentage was hit.
system.cpu.dcache.tags.occ_blocks::.cpu.data  1012.905040                       # Average occupied blocks per requestor
system.cpu.dcache.tags.occ_percent::.cpu.data     0.989165                       # Average percentage of cache occupancy
system.cpu.dcache.tags.occ_percent::total     0.989165                       # Average percentage of cache occupancy
system.cpu.dcache.tags.occ_task_id_blocks::1024         1024                       # Occupied blocks per task id
system.cpu.dcache.tags.age_task_id_blocks_1024::0           94                       # Occupied blocks per task id
system.cpu.dcache.tags.age_task_id_blocks_1024::1          185                       # Occupied blocks per task id
system.cpu.dcache.tags.age_task_id_blocks_1024::2          679                       # Occupied blocks per task id
system.cpu.dcache.tags.age_task_id_blocks_1024::3           66                       # Occupied blocks per task id
system.cpu.dcache.tags.occ_task_id_percent::1024            1                       # Percentage of cache occupancy per task id
system.cpu.dcache.tags.tag_accesses          52857344                       # Number of tag accesses
system.cpu.dcache.tags.data_accesses         52857344                       # Number of data accesses
system.cpu.dcache.tags.power_state.pwrStateResidencyTicks::UNDEFINED 166955099000                       # Cumulative time (in ticks) in various power states
system.cpu.dtb.instHits                             0                       # ITB inst hits
system.cpu.dtb.instMisses                           0                       # ITB inst misses
system.cpu.dtb.readHits                             0                       # DTB read hits
system.cpu.dtb.readMisses                           0                       # DTB read misses
system.cpu.dtb.writeHits                            0                       # DTB write hits
system.cpu.dtb.writeMisses                          0                       # DTB write misses
system.cpu.dtb.inserts                              0                       # Number of times an entry is inserted into the TLB
system.cpu.dtb.flushTlb                             0                       # Number of times complete TLB was flushed
system.cpu.dtb.flushTlbMva                          0                       # Number of times TLB was flushed by MVA
system.cpu.dtb.flushTlbMvaAsid                      0                       # Number of times TLB was flushed by MVA & ASID
system.cpu.dtb.flushTlbAsid                         0                       # Number of times TLB was flushed by ASID
system.cpu.dtb.flushedEntries                       0                       # Number of entries that have been flushed from TLB
system.cpu.dtb.alignFaults                          0                       # Number of TLB faults due to alignment restrictions
system.cpu.dtb.prefetchFaults                       0                       # Number of TLB faults due to prefetch
system.cpu.dtb.domainFaults                         0                       # Number of TLB faults due to domain restrictions
system.cpu.dtb.permsFaults                          0                       # Number of TLB faults due to permissions restrictions
system.cpu.dtb.readAccesses                         0                       # DTB read accesses
system.cpu.dtb.writeAccesses                        0                       # DTB write accesses
system.cpu.dtb.instAccesses                         0                       # ITB inst accesses
system.cpu.dtb.hits                                 0                       # Total TLB (inst and data) hits
system.cpu.dtb.misses                               0                       # Total TLB (inst and data) misses
system.cpu.dtb.accesses                             0                       # Total TLB (inst and data) accesses
system.cpu.dtb.stage2_mmu.stage2_tlb.instHits            0                       # ITB inst hits
system.cpu.dtb.stage2_mmu.stage2_tlb.instMisses            0                       # ITB inst misses
system.cpu.dtb.stage2_mmu.stage2_tlb.readHits            0                       # DTB read hits
system.cpu.dtb.stage2_mmu.stage2_tlb.readMisses            0                       # DTB read misses
system.cpu.dtb.stage2_mmu.stage2_tlb.writeHits            0                       # DTB write hits
system.cpu.dtb.stage2_mmu.stage2_tlb.writeMisses            0                       # DTB write misses
system.cpu.dtb.stage2_mmu.stage2_tlb.inserts            0                       # Number of times an entry is inserted into the TLB
system.cpu.dtb.stage2_mmu.stage2_tlb.flushTlb            0                       # Number of times complete TLB was flushed
system.cpu.dtb.stage2_mmu.stage2_tlb.flushTlbMva            0                       # Number of times TLB was flushed by MVA
system.cpu.dtb.stage2_mmu.stage2_tlb.flushTlbMvaAsid            0                       # Number of times TLB was flushed by MVA & ASID
system.cpu.dtb.stage2_mmu.stage2_tlb.flushTlbAsid            0                       # Number of times TLB was flushed by ASID
system.cpu.dtb.stage2_mmu.stage2_tlb.flushedEntries            0                       # Number of entries that have been flushed from TLB
system.cpu.dtb.stage2_mmu.stage2_tlb.alignFaults            0                       # Number of TLB faults due to alignment restrictions
system.cpu.dtb.stage2_mmu.stage2_tlb.prefetchFaults            0                       # Number of TLB faults due to prefetch
system.cpu.dtb.stage2_mmu.stage2_tlb.domainFaults            0                       # Number of TLB faults due to domain restrictions
system.cpu.dtb.stage2_mmu.stage2_tlb.permsFaults            0                       # Number of TLB faults due to permissions restrictions
system.cpu.dtb.stage2_mmu.stage2_tlb.readAccesses            0                       # DTB read accesses
system.cpu.dtb.stage2_mmu.stage2_tlb.writeAccesses            0                       # DTB write accesses
system.cpu.dtb.stage2_mmu.stage2_tlb.instAccesses            0                       # ITB inst accesses
system.cpu.dtb.stage2_mmu.stage2_tlb.hits            0                       # Total TLB (inst and data) hits
system.cpu.dtb.stage2_mmu.stage2_tlb.misses            0                       # Total TLB (inst and data) misses
system.cpu.dtb.stage2_mmu.stage2_tlb.accesses            0                       # Total TLB (inst and data) accesses
system.cpu.dtb.stage2_mmu.stage2_tlb.walker.walks            0                       # Table walker walks requested
system.cpu.dtb.stage2_mmu.stage2_tlb.walker.requestOrigin_Requested::Data            0                       # Table walker requests started/completed, data/inst
system.cpu.dtb.stage2_mmu.stage2_tlb.walker.requestOrigin_Requested::Inst            0                       # Table walker requests started/completed, data/inst
system.cpu.dtb.stage2_mmu.stage2_tlb.walker.requestOrigin_Requested::total            0                       # Table walker requests started/completed, data/inst
system.cpu.dtb.stage2_mmu.stage2_tlb.walker.requestOrigin_Completed::Data            0                       # Table walker requests started/completed, data/inst
system.cpu.dtb.stage2_mmu.stage2_tlb.walker.requestOrigin_Completed::Inst            0                       # Table walker requests started/completed, data/inst
system.cpu.dtb.stage2_mmu.stage2_tlb.walker.requestOrigin_Completed::total            0                       # Table walker requests started/completed, data/inst
system.cpu.dtb.stage2_mmu.stage2_tlb.walker.requestOrigin::total            0                       # Table walker requests started/completed, data/inst
system.cpu.dtb.stage2_mmu.stage2_tlb.walker.power_state.pwrStateResidencyTicks::UNDEFINED 166955099000                       # Cumulative time (in ticks) in various power states
system.cpu.dtb.walker.walks                         0                       # Table walker walks requested
system.cpu.dtb.walker.requestOrigin_Requested::Data            0                       # Table walker requests started/completed, data/inst
system.cpu.dtb.walker.requestOrigin_Requested::Inst            0                       # Table walker requests started/completed, data/inst
system.cpu.dtb.walker.requestOrigin_Requested::total            0                       # Table walker requests started/completed, data/inst
system.cpu.dtb.walker.requestOrigin_Completed::Data            0                       # Table walker requests started/completed, data/inst
system.cpu.dtb.walker.requestOrigin_Completed::Inst            0                       # Table walker requests started/completed, data/inst
system.cpu.dtb.walker.requestOrigin_Completed::total            0                       # Table walker requests started/completed, data/inst
system.cpu.dtb.walker.requestOrigin::total            0                       # Table walker requests started/completed, data/inst
system.cpu.dtb.walker.power_state.pwrStateResidencyTicks::UNDEFINED 166955099000                       # Cumulative time (in ticks) in various power states
system.cpu.fetch2.intInstructions            42685052                       # Number of integer instructions successfully decoded
system.cpu.fetch2.fpInstructions                    0                       # Number of floating point instructions successfully decoded
system.cpu.fetch2.vecInstructions                   0                       # Number of SIMD instructions successfully decoded
system.cpu.fetch2.loadInstructions           43474307                       # Number of memory load instructions successfully decoded
system.cpu.fetch2.storeInstructions          11025800                       # Number of memory store instructions successfully decoded
system.cpu.fetch2.amoInstructions                   0                       # Number of memory atomic instructions successfully decoded
system.cpu.icache.demand_hits::.cpu.inst      9700666                       # number of demand (read+write) hits
system.cpu.icache.demand_hits::total          9700666                       # number of demand (read+write) hits
system.cpu.icache.overall_hits::.cpu.inst      9700666                       # number of overall hits
system.cpu.icache.overall_hits::total         9700666                       # number of overall hits
system.cpu.icache.demand_misses::.cpu.inst          697                       # number of demand (read+write) misses
system.cpu.icache.demand_misses::total            697                       # number of demand (read+write) misses
system.cpu.icache.overall_misses::.cpu.inst          697                       # number of overall misses
system.cpu.icache.overall_misses::total           697                       # number of overall misses
system.cpu.icache.demand_miss_latency::.cpu.inst     68738000                       # number of demand (read+write) miss cycles
system.cpu.icache.demand_miss_latency::total     68738000                       # number of demand (read+write) miss cycles
system.cpu.icache.overall_miss_latency::.cpu.inst     68738000                       # number of overall miss cycles
system.cpu.icache.overall_miss_latency::total     68738000                       # number of overall miss cycles
system.cpu.icache.demand_accesses::.cpu.inst      9701363                       # number of demand (read+write) accesses
system.cpu.icache.demand_accesses::total      9701363                       # number of demand (read+write) accesses
system.cpu.icache.overall_accesses::.cpu.inst      9701363                       # number of overall (read+write) accesses
system.cpu.icache.overall_accesses::total      9701363                       # number of overall (read+write) accesses
system.cpu.icache.demand_miss_rate::.cpu.inst     0.000072                       # miss rate for demand accesses
system.cpu.icache.demand_miss_rate::total     0.000072                       # miss rate for demand accesses
system.cpu.icache.overall_miss_rate::.cpu.inst     0.000072                       # miss rate for overall accesses
system.cpu.icache.overall_miss_rate::total     0.000072                       # miss rate for overall accesses
system.cpu.icache.demand_avg_miss_latency::.cpu.inst 98619.799139                       # average overall miss latency
system.cpu.icache.demand_avg_miss_latency::total 98619.799139                       # average overall miss latency
system.cpu.icache.overall_avg_miss_latency::.cpu.inst 98619.799139                       # average overall miss latency
system.cpu.icache.overall_avg_miss_latency::total 98619.799139                       # average overall miss latency
system.cpu.icache.blocked_cycles::no_mshrs            0                       # number of cycles access was blocked
system.cpu.icache.blocked_cycles::no_targets            0                       # number of cycles access was blocked
system.cpu.icache.blocked::no_mshrs                 0                       # number of cycles access was blocked
system.cpu.icache.blocked::no_targets               0                       # number of cycles access was blocked
system.cpu.icache.avg_blocked_cycles::no_mshrs          nan                       # average number of cycles each access was blocked
system.cpu.icache.avg_blocked_cycles::no_targets          nan                       # average number of cycles each access was blocked
system.cpu.icache.writebacks::.writebacks          100                       # number of writebacks
system.cpu.icache.writebacks::total               100                       # number of writebacks
system.cpu.icache.demand_mshr_misses::.cpu.inst          697                       # number of demand (read+write) MSHR misses
system.cpu.icache.demand_mshr_misses::total          697                       # number of demand (read+write) MSHR misses
system.cpu.icache.overall_mshr_misses::.cpu.inst          697                       # number of overall MSHR misses
system.cpu.icache.overall_mshr_misses::total          697                       # number of overall MSHR misses
system.cpu.icache.demand_mshr_miss_latency::.cpu.inst     67344000                       # number of demand (read+write) MSHR miss cycles
system.cpu.icache.demand_mshr_miss_latency::total     67344000                       # number of demand (read+write) MSHR miss cycles
system.cpu.icache.overall_mshr_miss_latency::.cpu.inst     67344000                       # number of overall MSHR miss cycles
system.cpu.icache.overall_mshr_miss_latency::total     67344000                       # number of overall MSHR miss cycles
system.cpu.icache.demand_mshr_miss_rate::.cpu.inst     0.000072                       # mshr miss rate for demand accesses
system.cpu.icache.demand_mshr_miss_rate::total     0.000072                       # mshr miss rate for demand accesses
system.cpu.icache.overall_mshr_miss_rate::.cpu.inst     0.000072                       # mshr miss rate for overall accesses
system.cpu.icache.overall_mshr_miss_rate::total     0.000072                       # mshr miss rate for overall accesses
system.cpu.icache.demand_avg_mshr_miss_latency::.cpu.inst 96619.799139                       # average overall mshr miss latency
system.cpu.icache.demand_avg_mshr_miss_latency::total 96619.799139                       # average overall mshr miss latency
system.cpu.icache.overall_avg_mshr_miss_latency::.cpu.inst 96619.799139                       # average overall mshr miss latency
system.cpu.icache.overall_avg_mshr_miss_latency::total 96619.799139                       # average overall mshr miss latency
system.cpu.icache.replacements                    100                       # number of replacements
system.cpu.icache.ReadReq_hits::.cpu.inst      9700666                       # number of ReadReq hits
system.cpu.icache.ReadReq_hits::total         9700666                       # number of ReadReq hits
system.cpu.icache.ReadReq_misses::.cpu.inst          697                       # number of ReadReq misses
system.cpu.icache.ReadReq_misses::total           697                       # number of ReadReq misses
system.cpu.icache.ReadReq_miss_latency::.cpu.inst     68738000                       # number of ReadReq miss cycles
system.cpu.icache.ReadReq_miss_latency::total     68738000                       # number of ReadReq miss cycles
system.cpu.icache.ReadReq_accesses::.cpu.inst      9701363                       # number of ReadReq accesses(hits+misses)
system.cpu.icache.ReadReq_accesses::total      9701363                       # number of ReadReq accesses(hits+misses)
system.cpu.icache.ReadReq_miss_rate::.cpu.inst     0.000072                       # miss rate for ReadReq accesses
system.cpu.icache.ReadReq_miss_rate::total     0.000072                       # miss rate for ReadReq accesses
system.cpu.icache.ReadReq_avg_miss_latency::.cpu.inst 98619.799139                       # average ReadReq miss latency
system.cpu.icache.ReadReq_avg_miss_latency::total 98619.799139                       # average ReadReq miss latency
system.cpu.icache.ReadReq_mshr_misses::.cpu.inst          697                       # number of ReadReq MSHR misses
system.cpu.icache.ReadReq_mshr_misses::total          697                       # number of ReadReq MSHR misses
system.cpu.icache.ReadReq_mshr_miss_latency::.cpu.inst     67344000                       # number of ReadReq MSHR miss cycles
system.cpu.icache.ReadReq_mshr_miss_latency::total     67344000                       # number of ReadReq MSHR miss cycles
system.cpu.icache.ReadReq_mshr_miss_rate::.cpu.inst     0.000072                       # mshr miss rate for ReadReq accesses
system.cpu.icache.ReadReq_mshr_miss_rate::total     0.000072                       # mshr miss rate for ReadReq accesses
system.cpu.icache.ReadReq_avg_mshr_miss_latency::.cpu.inst 96619.799139                       # average ReadReq mshr miss latency
system.cpu.icache.ReadReq_avg_mshr_miss_latency::total 96619.799139                       # average ReadReq mshr miss latency
system.cpu.icache.power_state.pwrStateResidencyTicks::UNDEFINED 166955099000                       # Cumulative time (in ticks) in various power states
system.cpu.icache.tags.tagsinuse           497.879142                       # Cycle average of tags in use
system.cpu.icache.tags.total_refs             9701363                       # Total number of references to valid blocks.
system.cpu.icache.tags.sampled_refs               697                       # Sample count of references to valid blocks.
system.cpu.icache.tags.avg_refs          13918.741750                       # Average number of references to valid blocks.
system.cpu.icache.tags.warmup_cycle            108000                       # Cycle when the warmup percentage was hit.
system.cpu.icache.tags.occ_blocks::.cpu.inst   497.879142                       # Average occupied blocks per requestor
system.cpu.icache.tags.occ_percent::.cpu.inst     0.243105                       # Average percentage of cache occupancy
system.cpu.icache.tags.occ_percent::total     0.243105                       # Average percentage of cache occupancy
system.cpu.icache.tags.occ_task_id_blocks::1024          597                       # Occupied blocks per task id
system.cpu.icache.tags.age_task_id_blocks_1024::4          597                       # Occupied blocks per task id
system.cpu.icache.tags.occ_task_id_percent::1024     0.291504                       # Percentage of cache occupancy per task id
system.cpu.icache.tags.tag_accesses           9702060                       # Number of tag accesses
system.cpu.icache.tags.data_accesses          9702060                       # Number of data accesses
system.cpu.icache.tags.power_state.pwrStateResidencyTicks::UNDEFINED 166955099000                       # Cumulative time (in ticks) in various power states
system.cpu.itb.instHits                             0                       # ITB inst hits
system.cpu.itb.instMisses                           0                       # ITB inst misses
system.cpu.itb.readHits                             0                       # DTB read hits
system.cpu.itb.readMisses                           0                       # DTB read misses
system.cpu.itb.writeHits                            0                       # DTB write hits
system.cpu.itb.writeMisses                          0                       # DTB write misses
system.cpu.itb.inserts                              0                       # Number of times an entry is inserted into the TLB
system.cpu.itb.flushTlb                             0                       # Number of times complete TLB was flushed
system.cpu.itb.flushTlbMva                          0                       # Number of times TLB was flushed by MVA
system.cpu.itb.flushTlbMvaAsid                      0                       # Number of times TLB was flushed by MVA & ASID
system.cpu.itb.flushTlbAsid                         0                       # Number of times TLB was flushed by ASID
system.cpu.itb.flushedEntries                       0                       # Number of entries that have been flushed from TLB
system.cpu.itb.alignFaults                          0                       # Number of TLB faults due to alignment restrictions
system.cpu.itb.prefetchFaults                       0                       # Number of TLB faults due to prefetch
system.cpu.itb.domainFaults                         0                       # Number of TLB faults due to domain restrictions
system.cpu.itb.permsFaults                          0                       # Number of TLB faults due to permissions restrictions
system.cpu.itb.readAccesses                         0                       # DTB read accesses
system.cpu.itb.writeAccesses                        0                       # DTB write accesses
system.cpu.itb.instAccesses                         0                       # ITB inst accesses
system.cpu.itb.hits                                 0                       # Total TLB (inst and data) hits
system.cpu.itb.misses                               0                       # Total TLB (inst and data) misses
system.cpu.itb.accesses                             0                       # Total TLB (inst and data) accesses
system.cpu.itb.stage2_mmu.stage2_tlb.instHits            0                       # ITB inst hits
system.cpu.itb.stage2_mmu.stage2_tlb.instMisses            0                       # ITB inst misses
system.cpu.itb.stage2_mmu.stage2_tlb.readHits            0                       # DTB read hits
system.cpu.itb.stage2_mmu.stage2_tlb.readMisses            0                       # DTB read misses
system.cpu.itb.stage2_mmu.stage2_tlb.writeHits            0                       # DTB write hits
system.cpu.itb.stage2_mmu.stage2_tlb.writeMisses            0                       # DTB write misses
system.cpu.itb.stage2_mmu.stage2_tlb.inserts            0                       # Number of times an entry is inserted into the TLB
system.cpu.itb.stage2_mmu.stage2_tlb.flushTlb            0                       # Number of times complete TLB was flushed
system.cpu.itb.stage2_mmu.stage2_tlb.flushTlbMva            0                       # Number of times TLB was flushed by MVA
system.cpu.itb.stage2_mmu.stage2_tlb.flushTlbMvaAsid            0                       # Number of times TLB was flushed by MVA & ASID
system.cpu.itb.stage2_mmu.stage2_tlb.flushTlbAsid            0                       # Number of times TLB was flushed by ASID
system.cpu.itb.stage2_mmu.stage2_tlb.flushedEntries            0                       # Number of entries that have been flushed from TLB
system.cpu.itb.stage2_mmu.stage2_tlb.alignFaults            0                       # Number of TLB faults due to alignment restrictions
system.cpu.itb.stage2_mmu.stage2_tlb.prefetchFaults            0                       # Number of TLB faults due to prefetch
system.cpu.itb.stage2_mmu.stage2_tlb.domainFaults            0                       # Number of TLB faults due to domain restrictions
system.cpu.itb.stage2_mmu.stage2_tlb.permsFaults            0                       # Number of TLB faults due to permissions restrictions
system.cpu.itb.stage2_mmu.stage2_tlb.readAccesses            0                       # DTB read accesses
system.cpu.itb.stage2_mmu.stage2_tlb.writeAccesses            0                       # DTB write accesses
system.cpu.itb.stage2_mmu.stage2_tlb.instAccesses            0                       # ITB inst accesses
system.cpu.itb.stage2_mmu.stage2_tlb.hits            0                       # Total TLB (inst and data) hits
system.cpu.itb.stage2_mmu.stage2_tlb.misses            0                       # Total TLB (inst and data) misses
system.cpu.itb.stage2_mmu.stage2_tlb.accesses            0                       # Total TLB (inst and data) accesses
system.cpu.itb.stage2_mmu.stage2_tlb.walker.walks            0                       # Table walker walks requested
system.cpu.itb.stage2_mmu.stage2_tlb.walker.requestOrigin_Requested::Data            0                       # Table walker requests started/completed, data/inst
system.cpu.itb.stage2_mmu.stage2_tlb.walker.requestOrigin_Requested::Inst            0                       # Table walker requests started/completed, data/inst
system.cpu.itb.stage2_mmu.stage2_tlb.walker.requestOrigin_Requested::total            0                       # Table walker requests started/completed, data/inst
system.cpu.itb.stage2_mmu.stage2_tlb.walker.requestOrigin_Completed::Data            0                       # Table walker requests started/completed, data/inst
system.cpu.itb.stage2_mmu.stage2_tlb.walker.requestOrigin_Completed::Inst            0                       # Table walker requests started/completed, data/inst
system.cpu.itb.stage2_mmu.stage2_tlb.walker.requestOrigin_Completed::total            0                       # Table walker requests started/completed, data/inst
system.cpu.itb.stage2_mmu.stage2_tlb.walker.requestOrigin::total            0                       # Table walker requests started/completed, data/inst
system.cpu.itb.stage2_mmu.stage2_tlb.walker.power_state.pwrStateResidencyTicks::UNDEFINED 166955099000                       # Cumulative time (in ticks) in various power states
system.cpu.itb.walker.walks                         0                       # Table walker walks requested
system.cpu.itb.walker.requestOrigin_Requested::Data            0                       # Table walker requests started/completed, data/inst
system.cpu.itb.walker.requestOrigin_Requested::Inst            0                       # Table walker requests started/completed, data/inst
system.cpu.itb.walker.requestOrigin_Requested::total            0                       # Table walker requests started/completed, data/inst
system.cpu.itb.walker.requestOrigin_Completed::Data            0                       # Table walker requests started/completed, data/inst
system.cpu.itb.walker.requestOrigin_Completed::Inst            0                       # Table walker requests started/completed, data/inst
system.cpu.itb.walker.requestOrigin_Completed::total            0                       # Table walker requests started/completed, data/inst
system.cpu.itb.walker.requestOrigin::total            0                       # Table walker requests started/completed, data/inst
system.cpu.itb.walker.power_state.pwrStateResidencyTicks::UNDEFINED 166955099000                       # Cumulative time (in ticks) in various power states
system.cpu.power_state.pwrStateResidencyTicks::ON 166955099000                       # Cumulative time (in ticks) in various power states
system.cpu.thread_0.numInsts                100000001                       # Number of Instructions committed
system.cpu.thread_0.numOps                  100196375                       # Number of Ops committed
system.cpu.thread_0.numMemRefs                      0                       # Number of Memory References
system.cpu_clk_domain.clock                      1000                       # Clock period in ticks
system.cpu_voltage_domain.voltage                   1                       # Voltage in Volts
system.l2.demand_hits::.cpu.inst                   39                       # number of demand (read+write) hits
system.l2.demand_hits::.cpu.data               491773                       # number of demand (read+write) hits
system.l2.demand_hits::total                   491812                       # number of demand (read+write) hits
system.l2.overall_hits::.cpu.inst                  39                       # number of overall hits
system.l2.overall_hits::.cpu.data              491773                       # number of overall hits
system.l2.overall_hits::total                  491812                       # number of overall hits
system.l2.demand_misses::.cpu.inst                658                       # number of demand (read+write) misses
system.l2.demand_misses::.cpu.data             286693                       # number of demand (read+write) misses
system.l2.demand_misses::total                 287351                       # number of demand (read+write) misses
system.l2.overall_misses::.cpu.inst               658                       # number of overall misses
system.l2.overall_misses::.cpu.data            286693                       # number of overall misses
system.l2.overall_misses::total                287351                       # number of overall misses
system.l2.demand_miss_latency::.cpu.inst     64397000                       # number of demand (read+write) miss cycles
system.l2.demand_miss_latency::.cpu.data  30616355000                       # number of demand (read+write) miss cycles
system.l2.demand_miss_latency::total      30680752000                       # number of demand (read+write) miss cycles
system.l2.overall_miss_latency::.cpu.inst     64397000                       # number of overall miss cycles
system.l2.overall_miss_latency::.cpu.data  30616355000                       # number of overall miss cycles
system.l2.overall_miss_latency::total     30680752000                       # number of overall miss cycles
system.l2.demand_accesses::.cpu.inst              697                       # number of demand (read+write) accesses
system.l2.demand_accesses::.cpu.data           778466                       # number of demand (read+write) accesses
system.l2.demand_accesses::total               779163                       # number of demand (read+write) accesses
system.l2.overall_accesses::.cpu.inst             697                       # number of overall (read+write) accesses
system.l2.overall_accesses::.cpu.data          778466                       # number of overall (read+write) accesses
system.l2.overall_accesses::total              779163                       # number of overall (read+write) accesses
system.l2.demand_miss_rate::.cpu.inst        0.944046                       # miss rate for demand accesses
system.l2.demand_miss_rate::.cpu.data        0.368279                       # miss rate for demand accesses
system.l2.demand_miss_rate::total            0.368794                       # miss rate for demand accesses
system.l2.overall_miss_rate::.cpu.inst       0.944046                       # miss rate for overall accesses
system.l2.overall_miss_rate::.cpu.data       0.368279                       # miss rate for overall accesses
system.l2.overall_miss_rate::total           0.368794                       # miss rate for overall accesses
system.l2.demand_avg_miss_latency::.cpu.inst 97867.781155                       # average overall miss latency
system.l2.demand_avg_miss_latency::.cpu.data 106791.428462                       # average overall miss latency
system.l2.demand_avg_miss_latency::total 106770.994359                       # average overall miss latency
system.l2.overall_avg_miss_latency::.cpu.inst 97867.781155                       # average overall miss latency
system.l2.overall_avg_miss_latency::.cpu.data 106791.428462                       # average overall miss latency
system.l2.overall_avg_miss_latency::total 106770.994359                       # average overall miss latency
system.l2.blocked_cycles::no_mshrs                  0                       # number of cycles access was blocked
system.l2.blocked_cycles::no_targets                0                       # number of cycles access was blocked
system.l2.blocked::no_mshrs                         0                       # number of cycles access was blocked
system.l2.blocked::no_targets                       0                       # number of cycles access was blocked
system.l2.avg_blocked_cycles::no_mshrs            nan                       # average number of cycles each access was blocked
system.l2.avg_blocked_cycles::no_targets          nan                       # average number of cycles each access was blocked
system.l2.writebacks::.writebacks              199658                       # number of writebacks
system.l2.writebacks::total                    199658                       # number of writebacks
system.l2.demand_mshr_hits::.cpu.data               4                       # number of demand (read+write) MSHR hits
system.l2.demand_mshr_hits::total                   4                       # number of demand (read+write) MSHR hits
system.l2.overall_mshr_hits::.cpu.data              4                       # number of overall MSHR hits
system.l2.overall_mshr_hits::total                  4                       # number of overall MSHR hits
system.l2.demand_mshr_misses::.cpu.inst           658                       # number of demand (read+write) MSHR misses
system.l2.demand_mshr_misses::.cpu.data        286689                       # number of demand (read+write) MSHR misses
system.l2.demand_mshr_misses::total            287347                       # number of demand (read+write) MSHR misses
system.l2.overall_mshr_misses::.cpu.inst          658                       # number of overall MSHR misses
system.l2.overall_mshr_misses::.cpu.data       286689                       # number of overall MSHR misses
system.l2.overall_mshr_misses::total           287347                       # number of overall MSHR misses
system.l2.demand_mshr_miss_latency::.cpu.inst     51237000                       # number of demand (read+write) MSHR miss cycles
system.l2.demand_mshr_miss_latency::.cpu.data  24882285000                       # number of demand (read+write) MSHR miss cycles
system.l2.demand_mshr_miss_latency::total  24933522000                       # number of demand (read+write) MSHR miss cycles
system.l2.overall_mshr_miss_latency::.cpu.inst     51237000                       # number of overall MSHR miss cycles
system.l2.overall_mshr_miss_latency::.cpu.data  24882285000                       # number of overall MSHR miss cycles
system.l2.overall_mshr_miss_latency::total  24933522000                       # number of overall MSHR miss cycles
system.l2.demand_mshr_miss_rate::.cpu.inst     0.944046                       # mshr miss rate for demand accesses
system.l2.demand_mshr_miss_rate::.cpu.data     0.368274                       # mshr miss rate for demand accesses
system.l2.demand_mshr_miss_rate::total       0.368789                       # mshr miss rate for demand accesses
system.l2.overall_mshr_miss_rate::.cpu.inst     0.944046                       # mshr miss rate for overall accesses
system.l2.overall_mshr_miss_rate::.cpu.data     0.368274                       # mshr miss rate for overall accesses
system.l2.overall_mshr_miss_rate::total      0.368789                       # mshr miss rate for overall accesses
system.l2.demand_avg_mshr_miss_latency::.cpu.inst 77867.781155                       # average overall mshr miss latency
system.l2.demand_avg_mshr_miss_latency::.cpu.data 86791.906910                       # average overall mshr miss latency
system.l2.demand_avg_mshr_miss_latency::total 86771.471427                       # average overall mshr miss latency
system.l2.overall_avg_mshr_miss_latency::.cpu.inst 77867.781155                       # average overall mshr miss latency
system.l2.overall_avg_mshr_miss_latency::.cpu.data 86791.906910                       # average overall mshr miss latency
system.l2.overall_avg_mshr_miss_latency::total 86771.471427                       # average overall mshr miss latency
system.l2.replacements                         288155                       # number of replacements
system.l2.WritebackDirty_hits::.writebacks       677804                       # number of WritebackDirty hits
system.l2.WritebackDirty_hits::total           677804                       # number of WritebackDirty hits
system.l2.WritebackDirty_accesses::.writebacks       677804                       # number of WritebackDirty accesses(hits+misses)
system.l2.WritebackDirty_accesses::total       677804                       # number of WritebackDirty accesses(hits+misses)
system.l2.WritebackClean_hits::.writebacks           94                       # number of WritebackClean hits
system.l2.WritebackClean_hits::total               94                       # number of WritebackClean hits
system.l2.WritebackClean_accesses::.writebacks           94                       # number of WritebackClean accesses(hits+misses)
system.l2.WritebackClean_accesses::total           94                       # number of WritebackClean accesses(hits+misses)
system.l2.CleanEvict_mshr_misses::.writebacks         4655                       # number of CleanEvict MSHR misses
system.l2.CleanEvict_mshr_misses::total          4655                       # number of CleanEvict MSHR misses
system.l2.CleanEvict_mshr_miss_rate::.writebacks          inf                       # mshr miss rate for CleanEvict accesses
system.l2.CleanEvict_mshr_miss_rate::total          inf                       # mshr miss rate for CleanEvict accesses
system.l2.ReadExReq_hits::.cpu.data            144632                       # number of ReadExReq hits
system.l2.ReadExReq_hits::total                144632                       # number of ReadExReq hits
system.l2.ReadExReq_misses::.cpu.data          176835                       # number of ReadExReq misses
system.l2.ReadExReq_misses::total              176835                       # number of ReadExReq misses
system.l2.ReadExReq_miss_latency::.cpu.data  19265032000                       # number of ReadExReq miss cycles
system.l2.ReadExReq_miss_latency::total   19265032000                       # number of ReadExReq miss cycles
system.l2.ReadExReq_accesses::.cpu.data        321467                       # number of ReadExReq accesses(hits+misses)
system.l2.ReadExReq_accesses::total            321467                       # number of ReadExReq accesses(hits+misses)
system.l2.ReadExReq_miss_rate::.cpu.data     0.550088                       # miss rate for ReadExReq accesses
system.l2.ReadExReq_miss_rate::total         0.550088                       # miss rate for ReadExReq accesses
system.l2.ReadExReq_avg_miss_latency::.cpu.data 108943.546244                       # average ReadExReq miss latency
system.l2.ReadExReq_avg_miss_latency::total 108943.546244                       # average ReadExReq miss latency
system.l2.ReadExReq_mshr_misses::.cpu.data       176835                       # number of ReadExReq MSHR misses
system.l2.ReadExReq_mshr_misses::total         176835                       # number of ReadExReq MSHR misses
system.l2.ReadExReq_mshr_miss_latency::.cpu.data  15728332000                       # number of ReadExReq MSHR miss cycles
system.l2.ReadExReq_mshr_miss_latency::total  15728332000                       # number of ReadExReq MSHR miss cycles
system.l2.ReadExReq_mshr_miss_rate::.cpu.data     0.550088                       # mshr miss rate for ReadExReq accesses
system.l2.ReadExReq_mshr_miss_rate::total     0.550088                       # mshr miss rate for ReadExReq accesses
system.l2.ReadExReq_avg_mshr_miss_latency::.cpu.data 88943.546244                       # average ReadExReq mshr miss latency
system.l2.ReadExReq_avg_mshr_miss_latency::total 88943.546244                       # average ReadExReq mshr miss latency
system.l2.ReadCleanReq_hits::.cpu.inst             39                       # number of ReadCleanReq hits
system.l2.ReadCleanReq_hits::total                 39                       # number of ReadCleanReq hits
system.l2.ReadCleanReq_misses::.cpu.inst          658                       # number of ReadCleanReq misses
system.l2.ReadCleanReq_misses::total              658                       # number of ReadCleanReq misses
system.l2.ReadCleanReq_miss_latency::.cpu.inst     64397000                       # number of ReadCleanReq miss cycles
system.l2.ReadCleanReq_miss_latency::total     64397000                       # number of ReadCleanReq miss cycles
system.l2.ReadCleanReq_accesses::.cpu.inst          697                       # number of ReadCleanReq accesses(hits+misses)
system.l2.ReadCleanReq_accesses::total            697                       # number of ReadCleanReq accesses(hits+misses)
system.l2.ReadCleanReq_miss_rate::.cpu.inst     0.944046                       # miss rate for ReadCleanReq accesses
system.l2.ReadCleanReq_miss_rate::total      0.944046                       # miss rate for ReadCleanReq accesses
system.l2.ReadCleanReq_avg_miss_latency::.cpu.inst 97867.781155                       # average ReadCleanReq miss latency
system.l2.ReadCleanReq_avg_miss_latency::total 97867.781155                       # average ReadCleanReq miss latency
system.l2.ReadCleanReq_mshr_misses::.cpu.inst          658                       # number of ReadCleanReq MSHR misses
system.l2.ReadCleanReq_mshr_misses::total          658                       # number of ReadCleanReq MSHR misses
system.l2.ReadCleanReq_mshr_miss_latency::.cpu.inst     51237000                       # number of ReadCleanReq MSHR miss cycles
system.l2.ReadCleanReq_mshr_miss_latency::total     51237000                       # number of ReadCleanReq MSHR miss cycles
system.l2.ReadCleanReq_mshr_miss_rate::.cpu.inst     0.944046                       # mshr miss rate for ReadCleanReq accesses
system.l2.ReadCleanReq_mshr_miss_rate::total     0.944046                       # mshr miss rate for ReadCleanReq accesses
system.l2.ReadCleanReq_avg_mshr_miss_latency::.cpu.inst 77867.781155                       # average ReadCleanReq mshr miss latency
system.l2.ReadCleanReq_avg_mshr_miss_latency::total 77867.781155                       # average ReadCleanReq mshr miss latency
system.l2.ReadSharedReq_hits::.cpu.data        347141                       # number of ReadSharedReq hits
system.l2.ReadSharedReq_hits::total            347141                       # number of ReadSharedReq hits
system.l2.ReadSharedReq_misses::.cpu.data       109858                       # number of ReadSharedReq misses
system.l2.ReadSharedReq_misses::total          109858                       # number of ReadSharedReq misses
system.l2.ReadSharedReq_miss_latency::.cpu.data  11351323000                       # number of ReadSharedReq miss cycles
system.l2.ReadSharedReq_miss_latency::total  11351323000                       # number of ReadSharedReq miss cycles
system.l2.ReadSharedReq_accesses::.cpu.data       456999                       # number of ReadSharedReq accesses(hits+misses)
system.l2.ReadSharedReq_accesses::total        456999                       # number of ReadSharedReq accesses(hits+misses)
system.l2.ReadSharedReq_miss_rate::.cpu.data     0.240390                       # miss rate for ReadSharedReq accesses
system.l2.ReadSharedReq_miss_rate::total     0.240390                       # miss rate for ReadSharedReq accesses
system.l2.ReadSharedReq_avg_miss_latency::.cpu.data 103327.231517                       # average ReadSharedReq miss latency
system.l2.ReadSharedReq_avg_miss_latency::total 103327.231517                       # average ReadSharedReq miss latency
system.l2.ReadSharedReq_mshr_hits::.cpu.data            4                       # number of ReadSharedReq MSHR hits
system.l2.ReadSharedReq_mshr_hits::total            4                       # number of ReadSharedReq MSHR hits
system.l2.ReadSharedReq_mshr_misses::.cpu.data       109854                       # number of ReadSharedReq MSHR misses
system.l2.ReadSharedReq_mshr_misses::total       109854                       # number of ReadSharedReq MSHR misses
system.l2.ReadSharedReq_mshr_miss_latency::.cpu.data   9153953000                       # number of ReadSharedReq MSHR miss cycles
system.l2.ReadSharedReq_mshr_miss_latency::total   9153953000                       # number of ReadSharedReq MSHR miss cycles
system.l2.ReadSharedReq_mshr_miss_rate::.cpu.data     0.240381                       # mshr miss rate for ReadSharedReq accesses
system.l2.ReadSharedReq_mshr_miss_rate::total     0.240381                       # mshr miss rate for ReadSharedReq accesses
system.l2.ReadSharedReq_avg_mshr_miss_latency::.cpu.data 83328.353997                       # average ReadSharedReq mshr miss latency
system.l2.ReadSharedReq_avg_mshr_miss_latency::total 83328.353997                       # average ReadSharedReq mshr miss latency
system.l2.power_state.pwrStateResidencyTicks::UNDEFINED 166955099000                       # Cumulative time (in ticks) in various power states
system.l2.tags.tagsinuse                  8084.100287                       # Cycle average of tags in use
system.l2.tags.total_refs                     1551339                       # Total number of references to valid blocks.
system.l2.tags.sampled_refs                    296347                       # Sample count of references to valid blocks.
system.l2.tags.avg_refs                      5.234873                       # Average number of references to valid blocks.
system.l2.tags.warmup_cycle                     87000                       # Cycle when the warmup percentage was hit.
system.l2.tags.occ_blocks::.writebacks     171.012527                       # Average occupied blocks per requestor
system.l2.tags.occ_blocks::.cpu.inst        14.803643                       # Average occupied blocks per requestor
system.l2.tags.occ_blocks::.cpu.data      7898.284117                       # Average occupied blocks per requestor
system.l2.tags.occ_percent::.writebacks      0.020876                       # Average percentage of cache occupancy
system.l2.tags.occ_percent::.cpu.inst        0.001807                       # Average percentage of cache occupancy
system.l2.tags.occ_percent::.cpu.data        0.964146                       # Average percentage of cache occupancy
system.l2.tags.occ_percent::total            0.986829                       # Average percentage of cache occupancy
system.l2.tags.occ_task_id_blocks::1024          8192                       # Occupied blocks per task id
system.l2.tags.age_task_id_blocks_1024::0           25                       # Occupied blocks per task id
system.l2.tags.age_task_id_blocks_1024::1          221                       # Occupied blocks per task id
system.l2.tags.age_task_id_blocks_1024::2         2307                       # Occupied blocks per task id
system.l2.tags.age_task_id_blocks_1024::3         5065                       # Occupied blocks per task id
system.l2.tags.age_task_id_blocks_1024::4          574                       # Occupied blocks per task id
system.l2.tags.occ_task_id_percent::1024            1                       # Percentage of cache occupancy per task id
system.l2.tags.tag_accesses                   3408343                       # Number of tag accesses
system.l2.tags.data_accesses                  3408343                       # Number of data accesses
system.l2.tags.power_state.pwrStateResidencyTicks::UNDEFINED 166955099000                       # Cumulative time (in ticks) in various power states
system.mem_ctrls.avgPriority_.writebacks::samples    199635.00                       # Average QoS priority value for accepted requests
system.mem_ctrls.avgPriority_.cpu.inst::samples       658.00                       # Average QoS priority value for accepted requests
system.mem_ctrls.avgPriority_.cpu.data::samples    285784.00                       # Average QoS priority value for accepted requests
system.mem_ctrls.priorityMinLatency      0.000000018750                       # per QoS priority minimum request to response latency (s)
system.mem_ctrls.priorityMaxLatency      0.005882668500                       # per QoS priority maximum request to response latency (s)
system.mem_ctrls.numReadWriteTurnArounds        11697                       # Number of turnarounds from READ to WRITE
system.mem_ctrls.numWriteReadTurnArounds        11697                       # Number of turnarounds from WRITE to READ
system.mem_ctrls.numStayReadState              802238                       # Number of times bus staying in READ state
system.mem_ctrls.numStayWriteState             188229                       # Number of times bus staying in WRITE state
system.mem_ctrls.readReqs                      287347                       # Number of read requests accepted
system.mem_ctrls.writeReqs                     199658                       # Number of write requests accepted
system.mem_ctrls.readBursts                    287347                       # Number of controller read bursts, including those serviced by the write queue
system.mem_ctrls.writeBursts                   199658                       # Number of controller write bursts, including those merged in the write queue
system.mem_ctrls.servicedByWrQ                    905                       # Number of controller read bursts serviced by the write queue
system.mem_ctrls.mergedWrBursts                    23                       # Number of controller write bursts merged with an existing one
system.mem_ctrls.neitherReadNorWriteReqs            0                       # Number of requests that are neither read nor write
system.mem_ctrls.avgRdQLen                       1.05                       # Average read queue length when enqueuing
system.mem_ctrls.avgWrQLen                      24.69                       # Average write queue length when enqueuing
system.mem_ctrls.numRdRetry                         0                       # Number of times read queue was full causing retry
system.mem_ctrls.numWrRetry                         0                       # Number of times write queue was full causing retry
system.mem_ctrls.readPktSize::0                     0                       # Read request sizes (log2)
system.mem_ctrls.readPktSize::1                     0                       # Read request sizes (log2)
system.mem_ctrls.readPktSize::2                     0                       # Read request sizes (log2)
system.mem_ctrls.readPktSize::3                     0                       # Read request sizes (log2)
system.mem_ctrls.readPktSize::4                     0                       # Read request sizes (log2)
system.mem_ctrls.readPktSize::5                     0                       # Read request sizes (log2)
system.mem_ctrls.readPktSize::6                287347                       # Read request sizes (log2)
system.mem_ctrls.writePktSize::0                    0                       # Write request sizes (log2)
system.mem_ctrls.writePktSize::1                    0                       # Write request sizes (log2)
system.mem_ctrls.writePktSize::2                    0                       # Write request sizes (log2)
system.mem_ctrls.writePktSize::3                    0                       # Write request sizes (log2)
system.mem_ctrls.writePktSize::4                    0                       # Write request sizes (log2)
system.mem_ctrls.writePktSize::5                    0                       # Write request sizes (log2)
system.mem_ctrls.writePktSize::6               199658                       # Write request sizes (log2)
system.mem_ctrls.rdQLenPdf::0                  231645                       # What read queue length does an incoming req see
system.mem_ctrls.rdQLenPdf::1                   54533                       # What read queue length does an incoming req see
system.mem_ctrls.rdQLenPdf::2                     153                       # What read queue length does an incoming req see
system.mem_ctrls.rdQLenPdf::3                     110                       # What read queue length does an incoming req see
system.mem_ctrls.rdQLenPdf::4                       1                       # What read queue length does an incoming req see
system.mem_ctrls.rdQLenPdf::5                       0                       # What read queue length does an incoming req see
system.mem_ctrls.rdQLenPdf::6                       0                       # What read queue length does an incoming req see
system.mem_ctrls.rdQLenPdf::7                       0                       # What read queue length does an incoming req see
system.mem_ctrls.rdQLenPdf::8                       0                       # What read queue length does an incoming req see
[...]
system.mem_ctrls.dram.bw_write::.writebacks     76536219                       # Write bandwidth from this memory (bytes/s)
system.mem_ctrls.dram.bw_write::total        76536219                       # Write bandwidth from this memory (bytes/s)
system.mem_ctrls.dram.bw_total::.writebacks     76536219                       # Total bandwidth to/from this memory (bytes/s)
system.mem_ctrls.dram.bw_total::.cpu.inst       252235                       # Total bandwidth to/from this memory (bytes/s)
system.mem_ctrls.dram.bw_total::.cpu.data    109898387                       # Total bandwidth to/from this memory (bytes/s)
system.mem_ctrls.dram.bw_total::total       186686841                       # Total bandwidth to/from this memory (bytes/s)
system.mem_ctrls.dram.readBursts               286442                       # Number of DRAM read bursts
system.mem_ctrls.dram.writeBursts              199603                       # Number of DRAM write bursts
system.mem_ctrls.dram.perBankRdBursts::0        17594                       # Per bank write bursts
system.mem_ctrls.dram.perBankRdBursts::1        17417                       # Per bank write bursts
system.mem_ctrls.dram.perBankRdBursts::2        17978                       # Per bank write bursts
system.mem_ctrls.dram.perBankRdBursts::3        17371                       # Per bank write bursts
system.mem_ctrls.dram.perBankRdBursts::4        18122                       # Per bank write bursts
system.mem_ctrls.dram.perBankRdBursts::5        16884                       # Per bank write bursts
system.mem_ctrls.dram.perBankRdBursts::6        19372                       # Per bank write bursts
system.mem_ctrls.dram.perBankRdBursts::7        19192                       # Per bank write bursts
system.mem_ctrls.dram.perBankRdBursts::8        17864                       # Per bank write bursts
system.mem_ctrls.dram.perBankRdBursts::9        16782                       # Per bank write bursts
system.mem_ctrls.dram.perBankRdBursts::10        19231                       # Per bank write bursts
system.mem_ctrls.dram.perBankRdBursts::11        16817                       # Per bank write bursts
system.mem_ctrls.dram.perBankRdBursts::12        17705                       # Per bank write bursts
system.mem_ctrls.dram.perBankRdBursts::13        19471                       # Per bank write bursts
system.mem_ctrls.dram.perBankRdBursts::14        17637                       # Per bank write bursts
system.mem_ctrls.dram.perBankRdBursts::15        17005                       # Per bank write bursts
system.mem_ctrls.dram.perBankWrBursts::0        11974                       # Per bank write bursts
system.mem_ctrls.dram.perBankWrBursts::1        11837                       # Per bank write bursts
system.mem_ctrls.dram.perBankWrBursts::2        12470                       # Per bank write bursts
system.mem_ctrls.dram.perBankWrBursts::3        11804                       # Per bank write bursts
system.mem_ctrls.dram.perBankWrBursts::4        12700                       # Per bank write bursts
system.mem_ctrls.dram.perBankWrBursts::5        11639                       # Per bank write bursts
system.mem_ctrls.dram.perBankWrBursts::6        14118                       # Per bank write bursts
system.mem_ctrls.dram.perBankWrBursts::7        13825                       # Per bank write bursts
system.mem_ctrls.dram.perBankWrBursts::8        12714                       # Per bank write bursts
system.mem_ctrls.dram.perBankWrBursts::9        11691                       # Per bank write bursts
system.mem_ctrls.dram.perBankWrBursts::10        13901                       # Per bank write bursts
system.mem_ctrls.dram.perBankWrBursts::11        11258                       # Per bank write bursts
system.mem_ctrls.dram.perBankWrBursts::12        12108                       # Per bank write bursts
system.mem_ctrls.dram.perBankWrBursts::13        13909                       # Per bank write bursts
system.mem_ctrls.dram.perBankWrBursts::14        12140                       # Per bank write bursts
system.mem_ctrls.dram.perBankWrBursts::15        11515                       # Per bank write bursts
system.mem_ctrls.dram.totQLat              4783216250                       # Total ticks spent queuing
system.mem_ctrls.dram.totBusLat            1432210000                       # Total ticks spent in databus transfers
system.mem_ctrls.dram.totMemAccLat        10154003750                       # Total ticks spent from burst creation until serviced by the DRAM
system.mem_ctrls.dram.avgQLat                16698.73                       # Average queueing delay per DRAM burst
system.mem_ctrls.dram.avgBusLat               5000.00                       # Average bus latency per DRAM burst
system.mem_ctrls.dram.avgMemAccLat           35448.73                       # Average memory access latency per DRAM burst
system.mem_ctrls.dram.readRowHits              146007                       # Number of row buffer hits during reads
system.mem_ctrls.dram.writeRowHits             101889                       # Number of row buffer hits during writes
system.mem_ctrls.dram.readRowHitRate            50.97                       # Row buffer hit rate for reads
system.mem_ctrls.dram.writeRowHitRate           51.05                       # Row buffer hit rate for writes
system.mem_ctrls.dram.bytesPerActivate::samples       238140                       # Bytes accessed per row activation
system.mem_ctrls.dram.bytesPerActivate::mean   130.620845                       # Bytes accessed per row activation
system.mem_ctrls.dram.bytesPerActivate::gmean    88.259586                       # Bytes accessed per row activation
system.mem_ctrls.dram.bytesPerActivate::stdev   188.436792                       # Bytes accessed per row activation
system.mem_ctrls.dram.bytesPerActivate::0-127       183421     77.02%     77.02% # Bytes accessed per row activation
system.mem_ctrls.dram.bytesPerActivate::128-255        29615     12.44%     89.46% # Bytes accessed per row activation
system.mem_ctrls.dram.bytesPerActivate::256-383         5850      2.46%     91.91% # Bytes accessed per row activation
system.mem_ctrls.dram.bytesPerActivate::384-511         1554      0.65%     92.57% # Bytes accessed per row activation
system.mem_ctrls.dram.bytesPerActivate::512-639         9293      3.90%     96.47% # Bytes accessed per row activation
system.mem_ctrls.dram.bytesPerActivate::640-767          884      0.37%     96.84% # Bytes accessed per row activation
system.mem_ctrls.dram.bytesPerActivate::768-895          575      0.24%     97.08% # Bytes accessed per row activation
system.mem_ctrls.dram.bytesPerActivate::896-1023          548      0.23%     97.31% # Bytes accessed per row activation
system.mem_ctrls.dram.bytesPerActivate::1024-1151         6400      2.69%    100.00% # Bytes accessed per row activation
system.mem_ctrls.dram.bytesPerActivate::total       238140                       # Bytes accessed per row activation
system.mem_ctrls.dram.bytesRead              18332288                       # Total number of bytes read from DRAM
system.mem_ctrls.dram.bytesWritten           12774592                       # Total number of bytes written to DRAM
system.mem_ctrls.dram.avgRdBW              109.803702                       # Average DRAM read bandwidth in MiBytes/s
system.mem_ctrls.dram.avgWrBW               76.515135                       # Average DRAM write bandwidth in MiBytes/s
system.mem_ctrls.dram.peakBW                 12800.00                       # Theoretical peak bandwidth in MiByte/s
system.mem_ctrls.dram.busUtil                    1.46                       # Data bus utilization in percentage
system.mem_ctrls.dram.busUtilRead                0.86                       # Data bus utilization in percentage for reads
system.mem_ctrls.dram.busUtilWrite               0.60                       # Data bus utilization in percentage for writes
system.mem_ctrls.dram.pageHitRate               51.00                       # Row buffer hit rate, read and write combined
system.mem_ctrls.dram.power_state.pwrStateResidencyTicks::UNDEFINED 166955099000                       # Cumulative time (in ticks) in various power states
system.mem_ctrls.dram.rank0.actEnergy       855814680                       # Energy for activate commands per rank (pJ)
system.mem_ctrls.dram.rank0.preEnergy       454861110                       # Energy for precharge commands per rank (pJ)
system.mem_ctrls.dram.rank0.readEnergy     1027660200                       # Energy for read commands per rank (pJ)
system.mem_ctrls.dram.rank0.writeEnergy     523915740                       # Energy for write commands per rank (pJ)
system.mem_ctrls.dram.rank0.refreshEnergy 13179110880.000002                       # Energy for refresh commands per rank (pJ)
system.mem_ctrls.dram.rank0.actBackEnergy  41070191190                       # Energy for active background per rank (pJ)
system.mem_ctrls.dram.rank0.preBackEnergy  29525334240                       # Energy for precharge background per rank (pJ)
system.mem_ctrls.dram.rank0.actPowerDownEnergy            0                       # Energy for active power-down per rank (pJ)
system.mem_ctrls.dram.rank0.prePowerDownEnergy            0                       # Energy for precharge power-down per rank (pJ)
system.mem_ctrls.dram.rank0.selfRefreshEnergy            0                       # Energy for self refresh per rank (pJ)
system.mem_ctrls.dram.rank0.totalEnergy   86636888040                       # Total energy per rank (pJ)
system.mem_ctrls.dram.rank0.averagePower   518.923283                       # Core power per rank (mW)
system.mem_ctrls.dram.rank0.totalIdleTime            0                       # Total Idle time Per DRAM Rank
system.mem_ctrls.dram.rank0.pwrStateTime::IDLE  76330265750                       # Time in different power states
system.mem_ctrls.dram.rank0.pwrStateTime::REF   5574920000                       # Time in different power states
system.mem_ctrls.dram.rank0.pwrStateTime::SREF            0                       # Time in different power states
system.mem_ctrls.dram.rank0.pwrStateTime::PRE_PDN            0                       # Time in different power states
system.mem_ctrls.dram.rank0.pwrStateTime::ACT  85049913250                       # Time in different power states
system.mem_ctrls.dram.rank0.pwrStateTime::ACT_PDN            0                       # Time in different power states
system.mem_ctrls.dram.rank1.actEnergy       844569180                       # Energy for activate commands per rank (pJ)
system.mem_ctrls.dram.rank1.preEnergy       448880190                       # Energy for precharge commands per rank (pJ)
system.mem_ctrls.dram.rank1.readEnergy     1017535680                       # Energy for read commands per rank (pJ)
system.mem_ctrls.dram.rank1.writeEnergy     518011920                       # Energy for write commands per rank (pJ)
system.mem_ctrls.dram.rank1.refreshEnergy 13179110880.000002                       # Energy for refresh commands per rank (pJ)
system.mem_ctrls.dram.rank1.actBackEnergy  40717659300                       # Energy for active background per rank (pJ)
system.mem_ctrls.dram.rank1.preBackEnergy  29822203200                       # Energy for precharge background per rank (pJ)
system.mem_ctrls.dram.rank1.actPowerDownEnergy            0                       # Energy for active power-down per rank (pJ)
system.mem_ctrls.dram.rank1.prePowerDownEnergy            0                       # Energy for precharge power-down per rank (pJ)
system.mem_ctrls.dram.rank1.selfRefreshEnergy            0                       # Energy for self refresh per rank (pJ)
system.mem_ctrls.dram.rank1.totalEnergy   86547970350                       # Total energy per rank (pJ)
system.mem_ctrls.dram.rank1.averagePower   518.390698                       # Core power per rank (mW)
system.mem_ctrls.dram.rank1.totalIdleTime            0                       # Total Idle time Per DRAM Rank
system.mem_ctrls.dram.rank1.pwrStateTime::IDLE  77107500750                       # Time in different power states
system.mem_ctrls.dram.rank1.pwrStateTime::REF   5574920000                       # Time in different power states
system.mem_ctrls.dram.rank1.pwrStateTime::SREF            0                       # Time in different power states
system.mem_ctrls.dram.rank1.pwrStateTime::PRE_PDN            0                       # Time in different power states
system.mem_ctrls.dram.rank1.pwrStateTime::ACT  84272678250                       # Time in different power states
system.mem_ctrls.dram.rank1.pwrStateTime::ACT_PDN            0                       # Time in different power states
system.mem_ctrls.power_state.pwrStateResidencyTicks::UNDEFINED 166955099000                       # Cumulative time (in ticks) in various power states
system.membus.trans_dist::ReadResp             110512                       # Transaction distribution
system.membus.trans_dist::WritebackDirty       199658                       # Transaction distribution
system.membus.trans_dist::CleanEvict            78867                       # Transaction distribution
system.membus.trans_dist::ReadExReq            176835                       # Transaction distribution
system.membus.trans_dist::ReadExResp           176835                       # Transaction distribution
system.membus.trans_dist::ReadSharedReq        110512                       # Transaction distribution
system.membus.pkt_count_system.l2.mem_side_port::system.mem_ctrls.port       853219                       # Packet count per connected requestor and responder (bytes)
system.membus.pkt_count::total                 853219                       # Packet count per connected requestor and responder (bytes)
system.membus.pkt_size_system.l2.mem_side_port::system.mem_ctrls.port     31168320                       # Cumulative packet size per connected requestor and responder (bytes)
system.membus.pkt_size::total                31168320                       # Cumulative packet size per connected requestor and responder (bytes)
system.membus.snoops                                0                       # Total snoops (count)
system.membus.snoopTraffic                          0                       # Total snoop traffic (bytes)
system.membus.snoop_fanout::samples            287347                       # Request fanout histogram
system.membus.snoop_fanout::mean                    0                       # Request fanout histogram
system.membus.snoop_fanout::stdev                   0                       # Request fanout histogram
system.membus.snoop_fanout::underflows              0      0.00%      0.00% # Request fanout histogram
system.membus.snoop_fanout::0                  287347    100.00%    100.00% # Request fanout histogram
system.membus.snoop_fanout::1                       0      0.00%    100.00% # Request fanout histogram
system.membus.snoop_fanout::overflows               0      0.00%    100.00% # Request fanout histogram
system.membus.snoop_fanout::min_value               0                       # Request fanout histogram
system.membus.snoop_fanout::max_value               0                       # Request fanout histogram
system.membus.snoop_fanout::total              287347                       # Request fanout histogram
system.membus.power_state.pwrStateResidencyTicks::UNDEFINED 166955099000                       # Cumulative time (in ticks) in various power states
system.membus.reqLayer0.occupancy          1364504000                       # Layer occupancy (ticks)
system.membus.reqLayer0.utilization               0.8                       # Layer utilization (%)
system.membus.respLayer1.occupancy         1564258750                       # Layer occupancy (ticks)
system.membus.respLayer1.utilization              0.9                       # Layer utilization (%)
system.tol2bus.trans_dist::ReadResp            457696                       # Transaction distribution
system.tol2bus.trans_dist::WritebackDirty       877462                       # Transaction distribution
system.tol2bus.trans_dist::WritebackClean          100                       # Transaction distribution
system.tol2bus.trans_dist::CleanEvict          188135                       # Transaction distribution
system.tol2bus.trans_dist::ReadExReq           321467                       # Transaction distribution
system.tol2bus.trans_dist::ReadExResp          321467                       # Transaction distribution
system.tol2bus.trans_dist::ReadCleanReq           697                       # Transaction distribution
system.tol2bus.trans_dist::ReadSharedReq       456999                       # Transaction distribution
system.tol2bus.pkt_count_system.cpu.icache.mem_side_port::system.l2.cpu_side_port         1494                       # Packet count per connected requestor and responder (bytes)
system.tol2bus.pkt_count_system.cpu.dcache.mem_side_port::system.l2.cpu_side_port      2334374                       # Packet count per connected requestor and responder (bytes)
system.tol2bus.pkt_count::total               2335868                       # Packet count per connected requestor and responder (bytes)
system.tol2bus.pkt_size_system.cpu.icache.mem_side_port::system.l2.cpu_side_port        51008                       # Cumulative packet size per connected requestor and responder (bytes)
system.tol2bus.pkt_size_system.cpu.dcache.mem_side_port::system.l2.cpu_side_port     93201280                       # Cumulative packet size per connected requestor and responder (bytes)
system.tol2bus.pkt_size::total               93252288                       # Cumulative packet size per connected requestor and responder (bytes)
system.tol2bus.snoops                          288155                       # Total snoops (count)
system.tol2bus.snoopTraffic                  12778112                       # Total snoop traffic (bytes)
system.tol2bus.snoop_fanout::samples          1067318                       # Request fanout histogram
system.tol2bus.snoop_fanout::mean            0.014067                       # Request fanout histogram
system.tol2bus.snoop_fanout::stdev           0.117926                       # Request fanout histogram
system.tol2bus.snoop_fanout::underflows             0      0.00%      0.00% # Request fanout histogram
system.tol2bus.snoop_fanout::0                1052324     98.60%     98.60% # Request fanout histogram
system.tol2bus.snoop_fanout::1                  14974      1.40%    100.00% # Request fanout histogram
system.tol2bus.snoop_fanout::2                     20      0.00%    100.00% # Request fanout histogram
system.tol2bus.snoop_fanout::overflows              0      0.00%    100.00% # Request fanout histogram
system.tol2bus.snoop_fanout::min_value              0                       # Request fanout histogram
system.tol2bus.snoop_fanout::max_value              2                       # Request fanout histogram
system.tol2bus.snoop_fanout::total            1067318                       # Request fanout histogram
system.tol2bus.power_state.pwrStateResidencyTicks::UNDEFINED 166955099000                       # Cumulative time (in ticks) in various power states
system.tol2bus.reqLayer0.occupancy         2912513000                       # Layer occupancy (ticks)
system.tol2bus.reqLayer0.utilization              1.7                       # Layer utilization (%)
system.tol2bus.respLayer0.occupancy           2091000                       # Layer occupancy (ticks)
system.tol2bus.respLayer0.utilization             0.0                       # Layer utilization (%)
system.tol2bus.respLayer1.occupancy        2335401996                       # Layer occupancy (ticks)
system.tol2bus.respLayer1.utilization             1.4                       # Layer utilization (%)
system.voltage_domain.voltage                       1                       # Voltage in Volts

---------- End Simulation Statistics   ----------
