
---------- Begin Simulation Statistics ----------
final_tick                               128495904000                       # Number of ticks from beginning of simulation (restored from checkpoints and never reset)
host_inst_rate                                 414067                       # Simulator instruction rate (inst/s)
host_mem_usage                                 663504                       # Number of bytes of host memory used
host_op_rate                                   418633                       # Simulator op (including micro ops) rate (op/s)
host_seconds                                   241.51                       # Real time elapsed on the host
host_tick_rate                              532059058                       # Simulator tick rate (ticks/s)
sim_freq                                 1000000000000                       # Frequency of simulated ticks
sim_insts                                   100000000                       # Number of instructions simulated
sim_ops                                     101102842                       # Number of ops (including micro ops) simulated
sim_seconds                                  0.128496                       # Number of seconds simulated
sim_ticks                                128495904000                       # Number of ticks simulated
system.cpu.committedInsts                   100000000                       # Number of instructions committed
system.cpu.committedOps                     101102842                       # Number of ops (including micro ops) committed
system.cpu.cpi                               1.284959                       # CPI: cycles per instruction
system.cpu.discardedOps                        761165                       # Number of ops (including micro ops) which were discarded before commit
system.cpu.idleCycles                        10049314                       # Total number of cycles that the object has spent stopped
system.cpu.ipc                               0.778235                       # IPC: instructions per cycle
system.cpu.numCycles                        128495904                       # number of cpu cycles simulated
system.cpu.numFetchSuspends                         0                       # Number of times Execute suspended instruction fetching
system.cpu.numWorkItemsCompleted                    0                       # number of work items this cpu completed
system.cpu.numWorkItemsStarted                      0                       # number of work items this cpu started
system.cpu.op_class_0::No_OpClass                   0      0.00%      0.00% # Class of committed instruction
system.cpu.op_class_0::IntAlu                55116018     54.51%     54.51% # Class of committed instruction
system.cpu.op_class_0::IntMult                 167845      0.17%     54.68% # Class of committed instruction
system.cpu.op_class_0::IntDiv                       0      0.00%     54.68% # Class of committed instruction
system.cpu.op_class_0::FloatAdd                     0      0.00%     54.68% # Class of committed instruction
system.cpu.op_class_0::FloatCmp                     0      0.00%     54.68% # Class of committed instruction
system.cpu.op_class_0::FloatCvt                     0      0.00%     54.68% # Class of committed instruction
system.cpu.op_class_0::FloatMult                    0      0.00%     54.68% # Class of committed instruction
system.cpu.op_class_0::FloatMultAcc                 0      0.00%     54.68% # Class of committed instruction
system.cpu.op_class_0::FloatDiv                     0      0.00%     54.68% # Class of committed instruction
system.cpu.op_class_0::FloatMisc                    0      0.00%     54.68% # Class of committed instruction
system.cpu.op_class_0::FloatSqrt                    0      0.00%     54.68% # Class of committed instruction
system.cpu.op_class_0::SimdAdd                    376      0.00%     54.68% # Class of committed instruction
system.cpu.op_class_0::SimdAddAcc                   0      0.00%     54.68% # Class of committed instruction
system.cpu.op_class_0::SimdAlu                    466      0.00%     54.68% # Class of committed instruction
system.cpu.op_class_0::SimdCmp                    378      0.00%     54.68% # Class of committed instruction
system.cpu.op_class_0::SimdCvt                      0      0.00%     54.68% # Class of committed instruction
system.cpu.op_class_0::SimdMisc                    53      0.00%     54.68% # Class of committed instruction
system.cpu.op_class_0::SimdMult                     0      0.00%     54.68% # Class of committed instruction
system.cpu.op_class_0::SimdMultAcc                  0      0.00%     54.68% # Class of committed instruction
system.cpu.op_class_0::SimdShift                    0      0.00%     54.68% # Class of committed instruction
system.cpu.op_class_0::SimdShiftAcc                 0      0.00%     54.68% # Class of committed instruction
system.cpu.op_class_0::SimdDiv                      0      0.00%     54.68% # Class of committed instruction
system.cpu.op_class_0::SimdSqrt                     0      0.00%     54.68% # Class of committed instruction
system.cpu.op_class_0::SimdFloatAdd            267609      0.26%     54.95% # Class of committed instruction
system.cpu.op_class_0::SimdFloatAlu                 0      0.00%     54.95% # Class of committed instruction
system.cpu.op_class_0::SimdFloatCmp            259630      0.26%     55.20% # Class of committed instruction
system.cpu.op_class_0::SimdFloatCvt            161456      0.16%     55.36% # Class of committed instruction
system.cpu.op_class_0::SimdFloatDiv             54308      0.05%     55.42% # Class of committed instruction
system.cpu.op_class_0::SimdFloatMisc           483616      0.48%     55.90% # Class of committed instruction
system.cpu.op_class_0::SimdFloatMult            33524      0.03%     55.93% # Class of committed instruction
system.cpu.op_class_0::SimdFloatMultAcc         11115      0.01%     55.94% # Class of committed instruction
system.cpu.op_class_0::SimdFloatSqrt                0      0.00%     55.94% # Class of committed instruction
system.cpu.op_class_0::SimdReduceAdd                0      0.00%     55.94% # Class of committed instruction
system.cpu.op_class_0::SimdReduceAlu                0      0.00%     55.94% # Class of committed instruction
system.cpu.op_class_0::SimdReduceCmp                0      0.00%     55.94% # Class of committed instruction
system.cpu.op_class_0::SimdFloatReduceAdd            0      0.00%     55.94% # Class of committed instruction
system.cpu.op_class_0::SimdFloatReduceCmp            0      0.00%     55.94% # Class of committed instruction
system.cpu.op_class_0::SimdAes                      0      0.00%     55.94% # Class of committed instruction
system.cpu.op_class_0::SimdAesMix                   0      0.00%     55.94% # Class of committed instruction
system.cpu.op_class_0::SimdSha1Hash                 0      0.00%     55.94% # Class of committed instruction
system.cpu.op_class_0::SimdSha1Hash2                0      0.00%     55.94% # Class of committed instruction
system.cpu.op_class_0::SimdSha256Hash               0      0.00%     55.94% # Class of committed instruction
system.cpu.op_class_0::SimdSha256Hash2              0      0.00%     55.94% # Class of committed instruction
system.cpu.op_class_0::SimdShaSigma2                0      0.00%     55.94% # Class of committed instruction
system.cpu.op_class_0::SimdShaSigma3                0      0.00%     55.94% # Class of committed instruction
system.cpu.op_class_0::SimdPredAlu                  0      0.00%     55.94% # Class of committed instruction
system.cpu.op_class_0::MemRead               38167367     37.75%     93.69% # Class of committed instruction
system.cpu.op_class_0::MemWrite               6379081      6.31%    100.00% # Class of committed instruction
system.cpu.op_class_0::FloatMemRead                 0      0.00%    100.00% # Class of committed instruction
system.cpu.op_class_0::FloatMemWrite                0      0.00%    100.00% # Class of committed instruction
system.cpu.op_class_0::IprAccess                    0      0.00%    100.00% # Class of committed instruction
system.cpu.op_class_0::InstPrefetch                 0      0.00%    100.00% # Class of committed instruction
system.cpu.op_class_0::total                101102842                       # Class of committed instruction
system.cpu.tickCycles                       118446590                       # Number of cycles that the object actually ticked
system.cpu.workload.numSyscalls                    32                       # Number of system calls
system.membus.snoop_filter.hit_multi_requests            0                       # Number of requests hitting in the snoop filter with multiple (>1) holders of the requested data.
system.membus.snoop_filter.hit_multi_snoops            0                       # Number of snoops hitting in the snoop filter with multiple (>1) holders of the requested data.
system.membus.snoop_filter.hit_single_requests         1191                       # Number of requests hitting in the snoop filter with a single holder of the requested data.
system.membus.snoop_filter.hit_single_snoops            0                       # Number of snoops hitting in the snoop filter with a single holder of the requested data.
system.membus.snoop_filter.tot_requests          3633                       # Total number of requests made to the snoop filter.
system.membus.snoop_filter.tot_snoops               0                       # Total number of snoops made to the snoop filter.
system.tol2bus.snoop_filter.hit_multi_requests        79220                       # Number of requests hitting in the snoop filter with multiple (>1) holders of the requested data.
system.tol2bus.snoop_filter.hit_multi_snoops           33                       # Number of snoops hitting in the snoop filter with multiple (>1) holders of the requested data.
system.tol2bus.snoop_filter.hit_single_requests       476350                       # Number of requests hitting in the snoop filter with a single holder of the requested data.
system.tol2bus.snoop_filter.hit_single_snoops          454                       # Number of snoops hitting in the snoop filter with a single holder of the requested data.
system.tol2bus.snoop_filter.tot_requests       952954                       # Total number of requests made to the snoop filter.
system.tol2bus.snoop_filter.tot_snoops            487                       # Total number of snoops made to the snoop filter.
system.clk_domain.clock                          1000                       # Clock period in ticks
system.cpu.branchPred.lookups                 6481539                       # Number of BP lookups
system.cpu.branchPred.condPredicted           5089584                       # Number of conditional branches predicted
system.cpu.branchPred.condIncorrect            349119                       # Number of conditional branches incorrect
system.cpu.branchPred.BTBLookups              4079595                       # Number of BTB lookups
system.cpu.branchPred.BTBHits                 4072114                       # Number of BTB hits
system.cpu.branchPred.BTBHitPct             99.816624                       # BTB Hit Percentage
system.cpu.branchPred.RASUsed                  302597                       # Number of times the RAS was used to get a target.
system.cpu.branchPred.RASIncorrect                  4                       # Number of incorrect RAS predictions.
system.cpu.branchPred.indirectLookups          675690                       # Number of indirect predictor lookups.
system.cpu.branchPred.indirectHits             102890                       # Number of indirect target hits.
system.cpu.branchPred.indirectMisses           572800                       # Number of indirect misses.
system.cpu.branchPred.indirectMispredicted        37441                       # Number of mispredicted indirect branches.
system.cpu.dcache.demand_hits::.cpu.data     43856216                       # number of demand (read+write) hits
system.cpu.dcache.demand_hits::total         43856216                       # number of demand (read+write) hits
system.cpu.dcache.overall_hits::.cpu.data     43864916                       # number of overall hits
system.cpu.dcache.overall_hits::total        43864916                       # number of overall hits
system.cpu.dcache.demand_misses::.cpu.data        26708                       # number of demand (read+write) misses
system.cpu.dcache.demand_misses::total          26708                       # number of demand (read+write) misses
system.cpu.dcache.overall_misses::.cpu.data        26759                       # number of overall misses
system.cpu.dcache.overall_misses::total         26759                       # number of overall misses
system.cpu.dcache.demand_miss_latency::.cpu.data    919223000                       # number of demand (read+write) miss cycles
system.cpu.dcache.demand_miss_latency::total    919223000                       # number of demand (read+write) miss cycles
system.cpu.dcache.overall_miss_latency::.cpu.data    919223000                       # number of overall miss cycles
system.cpu.dcache.overall_miss_latency::total    919223000                       # number of overall miss cycles
system.cpu.dcache.demand_accesses::.cpu.data     43882924                       # number of demand (read+write) accesses
system.cpu.dcache.demand_accesses::total     43882924                       # number of demand (read+write) accesses
system.cpu.dcache.overall_accesses::.cpu.data     43891675                       # number of overall (read+write) accesses
system.cpu.dcache.overall_accesses::total     43891675                       # number of overall (read+write) accesses
system.cpu.dcache.demand_miss_rate::.cpu.data     0.000609                       # miss rate for demand accesses
system.cpu.dcache.demand_miss_rate::total     0.000609                       # miss rate for demand accesses
system.cpu.dcache.overall_miss_rate::.cpu.data     0.000610                       # miss rate for overall accesses
system.cpu.dcache.overall_miss_rate::total     0.000610                       # miss rate for overall accesses
system.cpu.dcache.demand_avg_miss_latency::.cpu.data 34417.515351                       # average overall miss latency
system.cpu.dcache.demand_avg_miss_latency::total 34417.515351                       # average overall miss latency
system.cpu.dcache.overall_avg_miss_latency::.cpu.data 34351.918981                       # average overall miss latency
system.cpu.dcache.overall_avg_miss_latency::total 34351.918981                       # average overall miss latency
system.cpu.dcache.blocked_cycles::no_mshrs            0                       # number of cycles access was blocked
system.cpu.dcache.blocked_cycles::no_targets            0                       # number of cycles access was blocked
system.cpu.dcache.blocked::no_mshrs                 0                       # number of cycles access was blocked
system.cpu.dcache.blocked::no_targets               0                       # number of cycles access was blocked
system.cpu.dcache.avg_blocked_cycles::no_mshrs          nan                       # average number of cycles each access was blocked
system.cpu.dcache.avg_blocked_cycles::no_targets          nan                       # average number of cycles each access was blocked
system.cpu.dcache.writebacks::.writebacks        23038                       # number of writebacks
system.cpu.dcache.writebacks::total             23038                       # number of writebacks
system.cpu.dcache.demand_mshr_hits::.cpu.data         1848                       # number of demand (read+write) MSHR hits
system.cpu.dcache.demand_mshr_hits::total         1848                       # number of demand (read+write) MSHR hits
system.cpu.dcache.overall_mshr_hits::.cpu.data         1848                       # number of overall MSHR hits
system.cpu.dcache.overall_mshr_hits::total         1848                       # number of overall MSHR hits
system.cpu.dcache.demand_mshr_misses::.cpu.data        24860                       # number of demand (read+write) MSHR misses
system.cpu.dcache.demand_mshr_misses::total        24860                       # number of demand (read+write) MSHR misses
system.cpu.dcache.overall_mshr_misses::.cpu.data        24886                       # number of overall MSHR misses
system.cpu.dcache.overall_mshr_misses::total        24886                       # number of overall MSHR misses
system.cpu.dcache.demand_mshr_miss_latency::.cpu.data    757597000                       # number of demand (read+write) MSHR miss cycles
system.cpu.dcache.demand_mshr_miss_latency::total    757597000                       # number of demand (read+write) MSHR miss cycles
system.cpu.dcache.overall_mshr_miss_latency::.cpu.data    760505000                       # number of overall MSHR miss cycles
system.cpu.dcache.overall_mshr_miss_latency::total    760505000                       # number of overall MSHR miss cycles
system.cpu.dcache.demand_mshr_miss_rate::.cpu.data     0.000567                       # mshr miss rate for demand accesses
system.cpu.dcache.demand_mshr_miss_rate::total     0.000567                       # mshr miss rate for demand accesses
system.cpu.dcache.overall_mshr_miss_rate::.cpu.data     0.000567                       # mshr miss rate for overall accesses
system.cpu.dcache.overall_mshr_miss_rate::total     0.000567                       # mshr miss rate for overall accesses
system.cpu.dcache.demand_avg_mshr_miss_latency::.cpu.data 30474.537409                       # average overall mshr miss latency
system.cpu.dcache.demand_avg_mshr_miss_latency::total 30474.537409                       # average overall mshr miss latency
system.cpu.dcache.overall_avg_mshr_miss_latency::.cpu.data 30559.551555                       # average overall mshr miss latency
system.cpu.dcache.overall_avg_mshr_miss_latency::total 30559.551555                       # average overall mshr miss latency
system.cpu.dcache.replacements                  24758                       # number of replacements
system.cpu.dcache.ReadReq_hits::.cpu.data     37554978                       # number of ReadReq hits
system.cpu.dcache.ReadReq_hits::total        37554978                       # number of ReadReq hits
system.cpu.dcache.ReadReq_misses::.cpu.data         7180                       # number of ReadReq misses
system.cpu.dcache.ReadReq_misses::total          7180                       # number of ReadReq misses
system.cpu.dcache.ReadReq_miss_latency::.cpu.data    238933000                       # number of ReadReq miss cycles
system.cpu.dcache.ReadReq_miss_latency::total    238933000                       # number of ReadReq miss cycles
system.cpu.dcache.ReadReq_accesses::.cpu.data     37562158                       # number of ReadReq accesses(hits+misses)
system.cpu.dcache.ReadReq_accesses::total     37562158                       # number of ReadReq accesses(hits+misses)
system.cpu.dcache.ReadReq_miss_rate::.cpu.data     0.000191                       # miss rate for ReadReq accesses
system.cpu.dcache.ReadReq_miss_rate::total     0.000191                       # miss rate for ReadReq accesses
system.cpu.dcache.ReadReq_avg_miss_latency::.cpu.data 33277.576602                       # average ReadReq miss latency
system.cpu.dcache.ReadReq_avg_miss_latency::total 33277.576602                       # average ReadReq miss latency
system.cpu.dcache.ReadReq_mshr_hits::.cpu.data          146                       # number of ReadReq MSHR hits
system.cpu.dcache.ReadReq_mshr_hits::total          146                       # number of ReadReq MSHR hits
system.cpu.dcache.ReadReq_mshr_misses::.cpu.data         7034                       # number of ReadReq MSHR misses
system.cpu.dcache.ReadReq_mshr_misses::total         7034                       # number of ReadReq MSHR misses
system.cpu.dcache.ReadReq_mshr_miss_latency::.cpu.data    218497000                       # number of ReadReq MSHR miss cycles
system.cpu.dcache.ReadReq_mshr_miss_latency::total    218497000                       # number of ReadReq MSHR miss cycles
system.cpu.dcache.ReadReq_mshr_miss_rate::.cpu.data     0.000187                       # mshr miss rate for ReadReq accesses
system.cpu.dcache.ReadReq_mshr_miss_rate::total     0.000187                       # mshr miss rate for ReadReq accesses
system.cpu.dcache.ReadReq_avg_mshr_miss_latency::.cpu.data 31062.979812                       # average ReadReq mshr miss latency
system.cpu.dcache.ReadReq_avg_mshr_miss_latency::total 31062.979812                       # average ReadReq mshr miss latency
system.cpu.dcache.WriteReq_hits::.cpu.data      6301238                       # number of WriteReq hits
system.cpu.dcache.WriteReq_hits::total        6301238                       # number of WriteReq hits
system.cpu.dcache.WriteReq_misses::.cpu.data        19528                       # number of WriteReq misses
system.cpu.dcache.WriteReq_misses::total        19528                       # number of WriteReq misses
system.cpu.dcache.WriteReq_miss_latency::.cpu.data    680290000                       # number of WriteReq miss cycles
system.cpu.dcache.WriteReq_miss_latency::total    680290000                       # number of WriteReq miss cycles
system.cpu.dcache.WriteReq_accesses::.cpu.data      6320766                       # number of WriteReq accesses(hits+misses)
system.cpu.dcache.WriteReq_accesses::total      6320766                       # number of WriteReq accesses(hits+misses)
system.cpu.dcache.WriteReq_miss_rate::.cpu.data     0.003089                       # miss rate for WriteReq accesses
system.cpu.dcache.WriteReq_miss_rate::total     0.003089                       # miss rate for WriteReq accesses
system.cpu.dcache.WriteReq_avg_miss_latency::.cpu.data 34836.644818                       # average WriteReq miss latency
system.cpu.dcache.WriteReq_avg_miss_latency::total 34836.644818                       # average WriteReq miss latency
system.cpu.dcache.WriteReq_mshr_hits::.cpu.data         1702                       # number of WriteReq MSHR hits
system.cpu.dcache.WriteReq_mshr_hits::total         1702                       # number of WriteReq MSHR hits
system.cpu.dcache.WriteReq_mshr_misses::.cpu.data        17826                       # number of WriteReq MSHR misses
system.cpu.dcache.WriteReq_mshr_misses::total        17826                       # number of WriteReq MSHR misses
system.cpu.dcache.WriteReq_mshr_miss_latency::.cpu.data    539100000                       # number of WriteReq MSHR miss cycles
system.cpu.dcache.WriteReq_mshr_miss_latency::total    539100000                       # number of WriteReq MSHR miss cycles
system.cpu.dcache.WriteReq_mshr_miss_rate::.cpu.data     0.002820                       # mshr miss rate for WriteReq accesses
system.cpu.dcache.WriteReq_mshr_miss_rate::total     0.002820                       # mshr miss rate for WriteReq accesses
system.cpu.dcache.WriteReq_avg_mshr_miss_latency::.cpu.data 30242.342646                       # average WriteReq mshr miss latency
system.cpu.dcache.WriteReq_avg_mshr_miss_latency::total 30242.342646                       # average WriteReq mshr miss latency
system.cpu.dcache.SoftPFReq_hits::.cpu.data         8700                       # number of SoftPFReq hits
system.cpu.dcache.SoftPFReq_hits::total          8700                       # number of SoftPFReq hits
system.cpu.dcache.SoftPFReq_misses::.cpu.data           51                       # number of SoftPFReq misses
system.cpu.dcache.SoftPFReq_misses::total           51                       # number of SoftPFReq misses
system.cpu.dcache.SoftPFReq_accesses::.cpu.data         8751                       # number of SoftPFReq accesses(hits+misses)
system.cpu.dcache.SoftPFReq_accesses::total         8751                       # number of SoftPFReq accesses(hits+misses)
system.cpu.dcache.SoftPFReq_miss_rate::.cpu.data     0.005828                       # miss rate for SoftPFReq accesses
system.cpu.dcache.SoftPFReq_miss_rate::total     0.005828                       # miss rate for SoftPFReq accesses
system.cpu.dcache.SoftPFReq_mshr_misses::.cpu.data           26                       # number of SoftPFReq MSHR misses
system.cpu.dcache.SoftPFReq_mshr_misses::total           26                       # number of SoftPFReq MSHR misses
system.cpu.dcache.SoftPFReq_mshr_miss_latency::.cpu.data      2908000                       # number of SoftPFReq MSHR miss cycles
system.cpu.dcache.SoftPFReq_mshr_miss_latency::total      2908000                       # number of SoftPFReq MSHR miss cycles
system.cpu.dcache.SoftPFReq_mshr_miss_rate::.cpu.data     0.002971                       # mshr miss rate for SoftPFReq accesses
system.cpu.dcache.SoftPFReq_mshr_miss_rate::total     0.002971                       # mshr miss rate for SoftPFReq accesses
system.cpu.dcache.SoftPFReq_avg_mshr_miss_latency::.cpu.data 111846.153846                       # average SoftPFReq mshr miss latency
system.cpu.dcache.SoftPFReq_avg_mshr_miss_latency::total 111846.153846                       # average SoftPFReq mshr miss latency
system.cpu.dcache.LoadLockedReq_hits::.cpu.data          166                       # number of LoadLockedReq hits
system.cpu.dcache.LoadLockedReq_hits::total          166                       # number of LoadLockedReq hits
system.cpu.dcache.LoadLockedReq_accesses::.cpu.data          166                       # number of LoadLockedReq accesses(hits+misses)
system.cpu.dcache.LoadLockedReq_accesses::total          166                       # number of LoadLockedReq accesses(hits+misses)
system.cpu.dcache.StoreCondReq_hits::.cpu.data          166                       # number of StoreCondReq hits
system.cpu.dcache.StoreCondReq_hits::total          166                       # number of StoreCondReq hits
system.cpu.dcache.StoreCondReq_accesses::.cpu.data          166                       # number of StoreCondReq accesses(hits+misses)
system.cpu.dcache.StoreCondReq_accesses::total          166                       # number of StoreCondReq accesses(hits+misses)
system.cpu.dcache.power_state.pwrStateResidencyTicks::UNDEFINED 128495904000                       # Cumulative time (in ticks) in various power states
system.cpu.dcache.tags.tagsinuse           127.920289                       # Cycle average of tags in use
system.cpu.dcache.tags.total_refs            43890134                       # Total number of references to valid blocks.
system.cpu.dcache.tags.sampled_refs             24886                       # Sample count of references to valid blocks.
system.cpu.dcache.tags.avg_refs           1763.647593                       # Average number of references to valid blocks.
system.cpu.dcache.tags.warmup_cycle            258000                       # Cycle when the warmup percentage was hit.
system.cpu.dcache.tags.occ_blocks::.cpu.data   127.920289                       # Average occupied blocks per requestor
system.cpu.dcache.tags.occ_percent::.cpu.data     0.999377                       # Average percentage of cache occupancy
system.cpu.dcache.tags.occ_percent::total     0.999377                       # Average percentage of cache occupancy
system.cpu.dcache.tags.occ_task_id_blocks::1024          128                       # Occupied blocks per task id
system.cpu.dcache.tags.age_task_id_blocks_1024::0            1                       # Occupied blocks per task id
system.cpu.dcache.tags.age_task_id_blocks_1024::1           19                       # Occupied blocks per task id
system.cpu.dcache.tags.age_task_id_blocks_1024::2           93                       # Occupied blocks per task id
system.cpu.dcache.tags.age_task_id_blocks_1024::3            5                       # Occupied blocks per task id
system.cpu.dcache.tags.age_task_id_blocks_1024::4           10                       # Occupied blocks per task id
system.cpu.dcache.tags.occ_task_id_percent::1024            1                       # Percentage of cache occupancy per task id
system.cpu.dcache.tags.tag_accesses         175592914                       # Number of tag accesses
system.cpu.dcache.tags.data_accesses        175592914                       # Number of data accesses
system.cpu.dcache.tags.power_state.pwrStateResidencyTicks::UNDEFINED 128495904000                       # Cumulative time (in ticks) in various power states
system.cpu.dtb.instHits                             0                       # ITB inst hits
system.cpu.dtb.instMisses                           0                       # ITB inst misses
system.cpu.dtb.readHits                             0                       # DTB read hits
system.cpu.dtb.readMisses                           0                       # DTB read misses
system.cpu.dtb.writeHits                            0                       # DTB write hits
system.cpu.dtb.writeMisses                          0                       # DTB write misses
system.cpu.dtb.inserts                              0                       # Number of times an entry is inserted into the TLB
system.cpu.dtb.flushTlb                             0                       # Number of times complete TLB was flushed
system.cpu.dtb.flushTlbMva                          0                       # Number of times TLB was flushed by MVA
system.cpu.dtb.flushTlbMvaAsid                      0                       # Number of times TLB was flushed by MVA & ASID
system.cpu.dtb.flushTlbAsid                         0                       # Number of times TLB was flushed by ASID
system.cpu.dtb.flushedEntries                       0                       # Number of entries that have been flushed from TLB
system.cpu.dtb.alignFaults                          0                       # Number of TLB faults due to alignment restrictions
system.cpu.dtb.prefetchFaults                       0                       # Number of TLB faults due to prefetch
system.cpu.dtb.domainFaults                         0                       # Number of TLB faults due to domain restrictions
system.cpu.dtb.permsFaults                          0                       # Number of TLB faults due to permissions restrictions
system.cpu.dtb.readAccesses                         0                       # DTB read accesses
system.cpu.dtb.writeAccesses                        0                       # DTB write accesses
system.cpu.dtb.instAccesses                         0                       # ITB inst accesses
system.cpu.dtb.hits                                 0                       # Total TLB (inst and data) hits
system.cpu.dtb.misses                               0                       # Total TLB (inst and data) misses
system.cpu.dtb.accesses                             0                       # Total TLB (inst and data) accesses
system.cpu.dtb.stage2_mmu.stage2_tlb.instHits            0                       # ITB inst hits
system.cpu.dtb.stage2_mmu.stage2_tlb.instMisses            0                       # ITB inst misses
system.cpu.dtb.stage2_mmu.stage2_tlb.readHits            0                       # DTB read hits
system.cpu.dtb.stage2_mmu.stage2_tlb.readMisses            0                       # DTB read misses
system.cpu.dtb.stage2_mmu.stage2_tlb.writeHits            0                       # DTB write hits
system.cpu.dtb.stage2_mmu.stage2_tlb.writeMisses            0                       # DTB write misses
system.cpu.dtb.stage2_mmu.stage2_tlb.inserts            0                       # Number of times an entry is inserted into the TLB
system.cpu.dtb.stage2_mmu.stage2_tlb.flushTlb            0                       # Number of times complete TLB was flushed
system.cpu.dtb.stage2_mmu.stage2_tlb.flushTlbMva            0                       # Number of times TLB was flushed by MVA
system.cpu.dtb.stage2_mmu.stage2_tlb.flushTlbMvaAsid            0                       # Number of times TLB was flushed by MVA & ASID
system.cpu.dtb.stage2_mmu.stage2_tlb.flushTlbAsid            0                       # Number of times TLB was flushed by ASID
system.cpu.dtb.stage2_mmu.stage2_tlb.flushedEntries            0                       # Number of entries that have been flushed from TLB
system.cpu.dtb.stage2_mmu.stage2_tlb.alignFaults            0                       # Number of TLB faults due to alignment restrictions
system.cpu.dtb.stage2_mmu.stage2_tlb.prefetchFaults            0                       # Number of TLB faults due to prefetch
system.cpu.dtb.stage2_mmu.stage2_tlb.domainFaults            0                       # Number of TLB faults due to domain restrictions
system.cpu.dtb.stage2_mmu.stage2_tlb.permsFaults            0                       # Number of TLB faults due to permissions restrictions
system.cpu.dtb.stage2_mmu.stage2_tlb.readAccesses            0                       # DTB read accesses
system.cpu.dtb.stage2_mmu.stage2_tlb.writeAccesses            0                       # DTB write accesses
system.cpu.dtb.stage2_mmu.stage2_tlb.instAccesses            0                       # ITB inst accesses
system.cpu.dtb.stage2_mmu.stage2_tlb.hits            0                       # Total TLB (inst and data) hits
system.cpu.dtb.stage2_mmu.stage2_tlb.misses            0                       # Total TLB (inst and data) misses
system.cpu.dtb.stage2_mmu.stage2_tlb.accesses            0                       # Total TLB (inst and data) accesses
system.cpu.dtb.stage2_mmu.stage2_tlb.walker.walks            0                       # Table walker walks requested
system.cpu.dtb.stage2_mmu.stage2_tlb.walker.requestOrigin_Requested::Data            0                       # Table walker requests started/completed, data/inst
system.cpu.dtb.stage2_mmu.stage2_tlb.walker.requestOrigin_Requested::Inst            0                       # Table walker requests started/completed, data/inst
system.cpu.dtb.stage2_mmu.stage2_tlb.walker.requestOrigin_Requested::total            0                       # Table walker requests started/completed, data/inst
system.cpu.dtb.stage2_mmu.stage2_tlb.walker.requestOrigin_Completed::Data            0                       # Table walker requests started/completed, data/inst
system.cpu.dtb.stage2_mmu.stage2_tlb.walker.requestOrigin_Completed::Inst            0                       # Table walker requests started/completed, data/inst
system.cpu.dtb.stage2_mmu.stage2_tlb.walker.requestOrigin_Completed::total            0                       # Table walker requests started/completed, data/inst
system.cpu.dtb.stage2_mmu.stage2_tlb.walker.requestOrigin::total            0                       # Table walker requests started/completed, data/inst
system.cpu.dtb.stage2_mmu.stage2_tlb.walker.power_state.pwrStateResidencyTicks::UNDEFINED 128495904000                       # Cumulative time (in ticks) in various power states
system.cpu.dtb.walker.walks                         0                       # Table walker walks requested
system.cpu.dtb.walker.requestOrigin_Requested::Data            0                       # Table walker requests started/completed, data/inst
system.cpu.dtb.walker.requestOrigin_Requested::Inst            0                       # Table walker requests started/completed, data/inst
system.cpu.dtb.walker.requestOrigin_Requested::total            0                       # Table walker requests started/completed, data/inst
system.cpu.dtb.walker.requestOrigin_Completed::Data            0                       # Table walker requests started/completed, data/inst
system.cpu.dtb.walker.requestOrigin_Completed::Inst            0                       # Table walker requests started/completed, data/inst
system.cpu.dtb.walker.requestOrigin_Completed::total            0                       # Table walker requests started/completed, data/inst
system.cpu.dtb.walker.requestOrigin::total            0                       # Table walker requests started/completed, data/inst
system.cpu.dtb.walker.power_state.pwrStateResidencyTicks::UNDEFINED 128495904000                       # Cumulative time (in ticks) in various power states
system.cpu.fetch2.intInstructions            48388189                       # Number of integer instructions successfully decoded
system.cpu.fetch2.fpInstructions                    0                       # Number of floating point instructions successfully decoded
system.cpu.fetch2.vecInstructions                   0                       # Number of SIMD instructions successfully decoded
system.cpu.fetch2.loadInstructions           40535551                       # Number of memory load instructions successfully decoded
system.cpu.fetch2.storeInstructions           6244888                       # Number of memory store instructions successfully decoded
system.cpu.fetch2.amoInstructions                   0                       # Number of memory atomic instructions successfully decoded
system.cpu.icache.demand_hits::.cpu.inst     13479833                       # number of demand (read+write) hits
system.cpu.icache.demand_hits::total         13479833                       # number of demand (read+write) hits
system.cpu.icache.overall_hits::.cpu.inst     13479833                       # number of overall hits
system.cpu.icache.overall_hits::total        13479833                       # number of overall hits
system.cpu.icache.demand_misses::.cpu.inst       451719                       # number of demand (read+write) misses
system.cpu.icache.demand_misses::total         451719                       # number of demand (read+write) misses
system.cpu.icache.overall_misses::.cpu.inst       451719                       # number of overall misses
system.cpu.icache.overall_misses::total        451719                       # number of overall misses
system.cpu.icache.demand_miss_latency::.cpu.inst  14116023000                       # number of demand (read+write) miss cycles
system.cpu.icache.demand_miss_latency::total  14116023000                       # number of demand (read+write) miss cycles
system.cpu.icache.overall_miss_latency::.cpu.inst  14116023000                       # number of overall miss cycles
system.cpu.icache.overall_miss_latency::total  14116023000                       # number of overall miss cycles
system.cpu.icache.demand_accesses::.cpu.inst     13931552                       # number of demand (read+write) accesses
system.cpu.icache.demand_accesses::total     13931552                       # number of demand (read+write) accesses
system.cpu.icache.overall_accesses::.cpu.inst     13931552                       # number of overall (read+write) accesses
system.cpu.icache.overall_accesses::total     13931552                       # number of overall (read+write) accesses
system.cpu.icache.demand_miss_rate::.cpu.inst     0.032424                       # miss rate for demand accesses
system.cpu.icache.demand_miss_rate::total     0.032424                       # miss rate for demand accesses
system.cpu.icache.overall_miss_rate::.cpu.inst     0.032424                       # miss rate for overall accesses
system.cpu.icache.overall_miss_rate::total     0.032424                       # miss rate for overall accesses
system.cpu.icache.demand_avg_miss_latency::.cpu.inst 31249.566655                       # average overall miss latency
system.cpu.icache.demand_avg_miss_latency::total 31249.566655                       # average overall miss latency
system.cpu.icache.overall_avg_miss_latency::.cpu.inst 31249.566655                       # average overall miss latency
system.cpu.icache.overall_avg_miss_latency::total 31249.566655                       # average overall miss latency
system.cpu.icache.blocked_cycles::no_mshrs            0                       # number of cycles access was blocked
system.cpu.icache.blocked_cycles::no_targets            0                       # number of cycles access was blocked
system.cpu.icache.blocked::no_mshrs                 0                       # number of cycles access was blocked
system.cpu.icache.blocked::no_targets               0                       # number of cycles access was blocked
system.cpu.icache.avg_blocked_cycles::no_mshrs          nan                       # average number of cycles each access was blocked
system.cpu.icache.avg_blocked_cycles::no_targets          nan                       # average number of cycles each access was blocked
system.cpu.icache.writebacks::.writebacks       451591                       # number of writebacks
system.cpu.icache.writebacks::total            451591                       # number of writebacks
system.cpu.icache.demand_mshr_misses::.cpu.inst       451719                       # number of demand (read+write) MSHR misses
system.cpu.icache.demand_mshr_misses::total       451719                       # number of demand (read+write) MSHR misses
system.cpu.icache.overall_mshr_misses::.cpu.inst       451719                       # number of overall MSHR misses
system.cpu.icache.overall_mshr_misses::total       451719                       # number of overall MSHR misses
system.cpu.icache.demand_mshr_miss_latency::.cpu.inst  13212585000                       # number of demand (read+write) MSHR miss cycles
system.cpu.icache.demand_mshr_miss_latency::total  13212585000                       # number of demand (read+write) MSHR miss cycles
system.cpu.icache.overall_mshr_miss_latency::.cpu.inst  13212585000                       # number of overall MSHR miss cycles
system.cpu.icache.overall_mshr_miss_latency::total  13212585000                       # number of overall MSHR miss cycles
system.cpu.icache.demand_mshr_miss_rate::.cpu.inst     0.032424                       # mshr miss rate for demand accesses
system.cpu.icache.demand_mshr_miss_rate::total     0.032424                       # mshr miss rate for demand accesses
system.cpu.icache.overall_mshr_miss_rate::.cpu.inst     0.032424                       # mshr miss rate for overall accesses
system.cpu.icache.overall_mshr_miss_rate::total     0.032424                       # mshr miss rate for overall accesses
system.cpu.icache.demand_avg_mshr_miss_latency::.cpu.inst 29249.566655                       # average overall mshr miss latency
system.cpu.icache.demand_avg_mshr_miss_latency::total 29249.566655                       # average overall mshr miss latency
system.cpu.icache.overall_avg_mshr_miss_latency::.cpu.inst 29249.566655                       # average overall mshr miss latency
system.cpu.icache.overall_avg_mshr_miss_latency::total 29249.566655                       # average overall mshr miss latency
system.cpu.icache.replacements                 451591                       # number of replacements
system.cpu.icache.ReadReq_hits::.cpu.inst     13479833                       # number of ReadReq hits
system.cpu.icache.ReadReq_hits::total        13479833                       # number of ReadReq hits
system.cpu.icache.ReadReq_misses::.cpu.inst       451719                       # number of ReadReq misses
system.cpu.icache.ReadReq_misses::total        451719                       # number of ReadReq misses
system.cpu.icache.ReadReq_miss_latency::.cpu.inst  14116023000                       # number of ReadReq miss cycles
system.cpu.icache.ReadReq_miss_latency::total  14116023000                       # number of ReadReq miss cycles
system.cpu.icache.ReadReq_accesses::.cpu.inst     13931552                       # number of ReadReq accesses(hits+misses)
system.cpu.icache.ReadReq_accesses::total     13931552                       # number of ReadReq accesses(hits+misses)
system.cpu.icache.ReadReq_miss_rate::.cpu.inst     0.032424                       # miss rate for ReadReq accesses
system.cpu.icache.ReadReq_miss_rate::total     0.032424                       # miss rate for ReadReq accesses
system.cpu.icache.ReadReq_avg_miss_latency::.cpu.inst 31249.566655                       # average ReadReq miss latency
system.cpu.icache.ReadReq_avg_miss_latency::total 31249.566655                       # average ReadReq miss latency
system.cpu.icache.ReadReq_mshr_misses::.cpu.inst       451719                       # number of ReadReq MSHR misses
system.cpu.icache.ReadReq_mshr_misses::total       451719                       # number of ReadReq MSHR misses
system.cpu.icache.ReadReq_mshr_miss_latency::.cpu.inst  13212585000                       # number of ReadReq MSHR miss cycles
system.cpu.icache.ReadReq_mshr_miss_latency::total  13212585000                       # number of ReadReq MSHR miss cycles
system.cpu.icache.ReadReq_mshr_miss_rate::.cpu.inst     0.032424                       # mshr miss rate for ReadReq accesses
system.cpu.icache.ReadReq_mshr_miss_rate::total     0.032424                       # mshr miss rate for ReadReq accesses
system.cpu.icache.ReadReq_avg_mshr_miss_latency::.cpu.inst 29249.566655                       # average ReadReq mshr miss latency
system.cpu.icache.ReadReq_avg_mshr_miss_latency::total 29249.566655                       # average ReadReq mshr miss latency
system.cpu.icache.power_state.pwrStateResidencyTicks::UNDEFINED 128495904000                       # Cumulative time (in ticks) in various power states
system.cpu.icache.tags.tagsinuse           127.971560                       # Cycle average of tags in use
system.cpu.icache.tags.total_refs            13931552                       # Total number of references to valid blocks.
system.cpu.icache.tags.sampled_refs            451719                       # Sample count of references to valid blocks.
system.cpu.icache.tags.avg_refs             30.841191                       # Average number of references to valid blocks.
system.cpu.icache.tags.warmup_cycle            123000                       # Cycle when the warmup percentage was hit.
system.cpu.icache.tags.occ_blocks::.cpu.inst   127.971560                       # Average occupied blocks per requestor
system.cpu.icache.tags.occ_percent::.cpu.inst     0.999778                       # Average percentage of cache occupancy
system.cpu.icache.tags.occ_percent::total     0.999778                       # Average percentage of cache occupancy
system.cpu.icache.tags.occ_task_id_blocks::1024          128                       # Occupied blocks per task id
system.cpu.icache.tags.age_task_id_blocks_1024::2           16                       # Occupied blocks per task id
system.cpu.icache.tags.age_task_id_blocks_1024::3            6                       # Occupied blocks per task id
system.cpu.icache.tags.age_task_id_blocks_1024::4          106                       # Occupied blocks per task id
system.cpu.icache.tags.occ_task_id_percent::1024            1                       # Percentage of cache occupancy per task id
system.cpu.icache.tags.tag_accesses          14383271                       # Number of tag accesses
system.cpu.icache.tags.data_accesses         14383271                       # Number of data accesses
system.cpu.icache.tags.power_state.pwrStateResidencyTicks::UNDEFINED 128495904000                       # Cumulative time (in ticks) in various power states
system.cpu.itb.instHits                             0                       # ITB inst hits
system.cpu.itb.instMisses                           0                       # ITB inst misses
system.cpu.itb.readHits                             0                       # DTB read hits
system.cpu.itb.readMisses                           0                       # DTB read misses
system.cpu.itb.writeHits                            0                       # DTB write hits
system.cpu.itb.writeMisses                          0                       # DTB write misses
system.cpu.itb.inserts                              0                       # Number of times an entry is inserted into the TLB
system.cpu.itb.flushTlb                             0                       # Number of times complete TLB was flushed
system.cpu.itb.flushTlbMva                          0                       # Number of times TLB was flushed by MVA
system.cpu.itb.flushTlbMvaAsid                      0                       # Number of times TLB was flushed by MVA & ASID
system.cpu.itb.flushTlbAsid                         0                       # Number of times TLB was flushed by ASID
system.cpu.itb.flushedEntries                       0                       # Number of entries that have been flushed from TLB
system.cpu.itb.alignFaults                          0                       # Number of TLB faults due to alignment restrictions
system.cpu.itb.prefetchFaults                       0                       # Number of TLB faults due to prefetch
system.cpu.itb.domainFaults                         0                       # Number of TLB faults due to domain restrictions
system.cpu.itb.permsFaults                          0                       # Number of TLB faults due to permissions restrictions
system.cpu.itb.readAccesses                         0                       # DTB read accesses
system.cpu.itb.writeAccesses                        0                       # DTB write accesses
system.cpu.itb.instAccesses                         0                       # ITB inst accesses
system.cpu.itb.hits                                 0                       # Total TLB (inst and data) hits
system.cpu.itb.misses                               0                       # Total TLB (inst and data) misses
system.cpu.itb.accesses                             0                       # Total TLB (inst and data) accesses
system.cpu.itb.stage2_mmu.stage2_tlb.instHits            0                       # ITB inst hits
system.cpu.itb.stage2_mmu.stage2_tlb.instMisses            0                       # ITB inst misses
system.cpu.itb.stage2_mmu.stage2_tlb.readHits            0                       # DTB read hits
system.cpu.itb.stage2_mmu.stage2_tlb.readMisses            0                       # DTB read misses
system.cpu.itb.stage2_mmu.stage2_tlb.writeHits            0                       # DTB write hits
system.cpu.itb.stage2_mmu.stage2_tlb.writeMisses            0                       # DTB write misses
system.cpu.itb.stage2_mmu.stage2_tlb.inserts            0                       # Number of times an entry is inserted into the TLB
system.cpu.itb.stage2_mmu.stage2_tlb.flushTlb            0                       # Number of times complete TLB was flushed
system.cpu.itb.stage2_mmu.stage2_tlb.flushTlbMva            0                       # Number of times TLB was flushed by MVA
system.cpu.itb.stage2_mmu.stage2_tlb.flushTlbMvaAsid            0                       # Number of times TLB was flushed by MVA & ASID
system.cpu.itb.stage2_mmu.stage2_tlb.flushTlbAsid            0                       # Number of times TLB was flushed by ASID
system.cpu.itb.stage2_mmu.stage2_tlb.flushedEntries            0                       # Number of entries that have been flushed from TLB
system.cpu.itb.stage2_mmu.stage2_tlb.alignFaults            0                       # Number of TLB faults due to alignment restrictions
system.cpu.itb.stage2_mmu.stage2_tlb.prefetchFaults            0                       # Number of TLB faults due to prefetch
system.cpu.itb.stage2_mmu.stage2_tlb.domainFaults            0                       # Number of TLB faults due to domain restrictions
system.cpu.itb.stage2_mmu.stage2_tlb.permsFaults            0                       # Number of TLB faults due to permissions restrictions
system.cpu.itb.stage2_mmu.stage2_tlb.readAccesses            0                       # DTB read accesses
system.cpu.itb.stage2_mmu.stage2_tlb.writeAccesses            0                       # DTB write accesses
system.cpu.itb.stage2_mmu.stage2_tlb.instAccesses            0                       # ITB inst accesses
system.cpu.itb.stage2_mmu.stage2_tlb.hits            0                       # Total TLB (inst and data) hits
system.cpu.itb.stage2_mmu.stage2_tlb.misses            0                       # Total TLB (inst and data) misses
system.cpu.itb.stage2_mmu.stage2_tlb.accesses            0                       # Total TLB (inst and data) accesses
system.cpu.itb.stage2_mmu.stage2_tlb.walker.walks            0                       # Table walker walks requested
system.cpu.itb.stage2_mmu.stage2_tlb.walker.requestOrigin_Requested::Data            0                       # Table walker requests started/completed, data/inst
system.cpu.itb.stage2_mmu.stage2_tlb.walker.requestOrigin_Requested::Inst            0                       # Table walker requests started/completed, data/inst
system.cpu.itb.stage2_mmu.stage2_tlb.walker.requestOrigin_Requested::total            0                       # Table walker requests started/completed, data/inst
system.cpu.itb.stage2_mmu.stage2_tlb.walker.requestOrigin_Completed::Data            0                       # Table walker requests started/completed, data/inst
system.cpu.itb.stage2_mmu.stage2_tlb.walker.requestOrigin_Completed::Inst            0                       # Table walker requests started/completed, data/inst
system.cpu.itb.stage2_mmu.stage2_tlb.walker.requestOrigin_Completed::total            0                       # Table walker requests started/completed, data/inst
system.cpu.itb.stage2_mmu.stage2_tlb.walker.requestOrigin::total            0                       # Table walker requests started/completed, data/inst
system.cpu.itb.stage2_mmu.stage2_tlb.walker.power_state.pwrStateResidencyTicks::UNDEFINED 128495904000                       # Cumulative time (in ticks) in various power states
system.cpu.itb.walker.walks                         0                       # Table walker walks requested
system.cpu.itb.walker.requestOrigin_Requested::Data            0                       # Table walker requests started/completed, data/inst
system.cpu.itb.walker.requestOrigin_Requested::Inst            0                       # Table walker requests started/completed, data/inst
system.cpu.itb.walker.requestOrigin_Requested::total            0                       # Table walker requests started/completed, data/inst
system.cpu.itb.walker.requestOrigin_Completed::Data            0                       # Table walker requests started/completed, data/inst
system.cpu.itb.walker.requestOrigin_Completed::Inst            0                       # Table walker requests started/completed, data/inst
system.cpu.itb.walker.requestOrigin_Completed::total            0                       # Table walker requests started/completed, data/inst
system.cpu.itb.walker.requestOrigin::total            0                       # Table walker requests started/completed, data/inst
system.cpu.itb.walker.power_state.pwrStateResidencyTicks::UNDEFINED 128495904000                       # Cumulative time (in ticks) in various power states
system.cpu.power_state.pwrStateResidencyTicks::ON 128495904000                       # Cumulative time (in ticks) in various power states
system.cpu.thread_0.numInsts                100000000                       # Number of Instructions committed
system.cpu.thread_0.numOps                  101102842                       # Number of Ops committed
system.cpu.thread_0.numMemRefs                      0                       # Number of Memory References
system.cpu_clk_domain.clock                      1000                       # Clock period in ticks
system.cpu_voltage_domain.voltage                   1                       # Voltage in Volts
system.l2.demand_hits::.cpu.inst               450886                       # number of demand (read+write) hits
system.l2.demand_hits::.cpu.data                23187                       # number of demand (read+write) hits
system.l2.demand_hits::total                   474073                       # number of demand (read+write) hits
system.l2.overall_hits::.cpu.inst              450886                       # number of overall hits
system.l2.overall_hits::.cpu.data               23187                       # number of overall hits
system.l2.overall_hits::total                  474073                       # number of overall hits
system.l2.demand_misses::.cpu.inst                833                       # number of demand (read+write) misses
system.l2.demand_misses::.cpu.data               1699                       # number of demand (read+write) misses
system.l2.demand_misses::total                   2532                       # number of demand (read+write) misses
system.l2.overall_misses::.cpu.inst               833                       # number of overall misses
system.l2.overall_misses::.cpu.data              1699                       # number of overall misses
system.l2.overall_misses::total                  2532                       # number of overall misses
system.l2.demand_miss_latency::.cpu.inst     98017000                       # number of demand (read+write) miss cycles
system.l2.demand_miss_latency::.cpu.data    189522000                       # number of demand (read+write) miss cycles
system.l2.demand_miss_latency::total        287539000                       # number of demand (read+write) miss cycles
system.l2.overall_miss_latency::.cpu.inst     98017000                       # number of overall miss cycles
system.l2.overall_miss_latency::.cpu.data    189522000                       # number of overall miss cycles
system.l2.overall_miss_latency::total       287539000                       # number of overall miss cycles
system.l2.demand_accesses::.cpu.inst           451719                       # number of demand (read+write) accesses
system.l2.demand_accesses::.cpu.data            24886                       # number of demand (read+write) accesses
system.l2.demand_accesses::total               476605                       # number of demand (read+write) accesses
system.l2.overall_accesses::.cpu.inst          451719                       # number of overall (read+write) accesses
system.l2.overall_accesses::.cpu.data           24886                       # number of overall (read+write) accesses
system.l2.overall_accesses::total              476605                       # number of overall (read+write) accesses
system.l2.demand_miss_rate::.cpu.inst        0.001844                       # miss rate for demand accesses
system.l2.demand_miss_rate::.cpu.data        0.068271                       # miss rate for demand accesses
system.l2.demand_miss_rate::total            0.005313                       # miss rate for demand accesses
system.l2.overall_miss_rate::.cpu.inst       0.001844                       # miss rate for overall accesses
system.l2.overall_miss_rate::.cpu.data       0.068271                       # miss rate for overall accesses
system.l2.overall_miss_rate::total           0.005313                       # miss rate for overall accesses
system.l2.demand_avg_miss_latency::.cpu.inst 117667.466987                       # average overall miss latency
system.l2.demand_avg_miss_latency::.cpu.data 111549.146557                       # average overall miss latency
system.l2.demand_avg_miss_latency::total 113562.006319                       # average overall miss latency
system.l2.overall_avg_miss_latency::.cpu.inst 117667.466987                       # average overall miss latency
system.l2.overall_avg_miss_latency::.cpu.data 111549.146557                       # average overall miss latency
system.l2.overall_avg_miss_latency::total 113562.006319                       # average overall miss latency
system.l2.blocked_cycles::no_mshrs                  0                       # number of cycles access was blocked
system.l2.blocked_cycles::no_targets                0                       # number of cycles access was blocked
system.l2.blocked::no_mshrs                         0                       # number of cycles access was blocked
system.l2.blocked::no_targets                       0                       # number of cycles access was blocked
system.l2.avg_blocked_cycles::no_mshrs            nan                       # average number of cycles each access was blocked
system.l2.avg_blocked_cycles::no_targets          nan                       # average number of cycles each access was blocked
system.l2.writebacks::.writebacks                 359                       # number of writebacks
system.l2.writebacks::total                       359                       # number of writebacks
system.l2.demand_mshr_hits::.cpu.data               7                       # number of demand (read+write) MSHR hits
system.l2.demand_mshr_hits::total                   7                       # number of demand (read+write) MSHR hits
system.l2.overall_mshr_hits::.cpu.data              7                       # number of overall MSHR hits
system.l2.overall_mshr_hits::total                  7                       # number of overall MSHR hits
system.l2.demand_mshr_misses::.cpu.inst           833                       # number of demand (read+write) MSHR misses
system.l2.demand_mshr_misses::.cpu.data          1692                       # number of demand (read+write) MSHR misses
system.l2.demand_mshr_misses::total              2525                       # number of demand (read+write) MSHR misses
system.l2.overall_mshr_misses::.cpu.inst          833                       # number of overall MSHR misses
system.l2.overall_mshr_misses::.cpu.data         1692                       # number of overall MSHR misses
system.l2.overall_mshr_misses::total             2525                       # number of overall MSHR misses
system.l2.demand_mshr_miss_latency::.cpu.inst     81357000                       # number of demand (read+write) MSHR miss cycles
system.l2.demand_mshr_miss_latency::.cpu.data    154758000                       # number of demand (read+write) MSHR miss cycles
system.l2.demand_mshr_miss_latency::total    236115000                       # number of demand (read+write) MSHR miss cycles
system.l2.overall_mshr_miss_latency::.cpu.inst     81357000                       # number of overall MSHR miss cycles
system.l2.overall_mshr_miss_latency::.cpu.data    154758000                       # number of overall MSHR miss cycles
system.l2.overall_mshr_miss_latency::total    236115000                       # number of overall MSHR miss cycles
system.l2.demand_mshr_miss_rate::.cpu.inst     0.001844                       # mshr miss rate for demand accesses
system.l2.demand_mshr_miss_rate::.cpu.data     0.067990                       # mshr miss rate for demand accesses
system.l2.demand_mshr_miss_rate::total       0.005298                       # mshr miss rate for demand accesses
system.l2.overall_mshr_miss_rate::.cpu.inst     0.001844                       # mshr miss rate for overall accesses
system.l2.overall_mshr_miss_rate::.cpu.data     0.067990                       # mshr miss rate for overall accesses
system.l2.overall_mshr_miss_rate::total      0.005298                       # mshr miss rate for overall accesses
system.l2.demand_avg_mshr_miss_latency::.cpu.inst 97667.466987                       # average overall mshr miss latency
system.l2.demand_avg_mshr_miss_latency::.cpu.data 91464.539007                       # average overall mshr miss latency
system.l2.demand_avg_mshr_miss_latency::total 93510.891089                       # average overall mshr miss latency
system.l2.overall_avg_mshr_miss_latency::.cpu.inst 97667.466987                       # average overall mshr miss latency
system.l2.overall_avg_mshr_miss_latency::.cpu.data 91464.539007                       # average overall mshr miss latency
system.l2.overall_avg_mshr_miss_latency::total 93510.891089                       # average overall mshr miss latency
system.l2.replacements                           1438                       # number of replacements
system.l2.WritebackDirty_hits::.writebacks        23038                       # number of WritebackDirty hits
system.l2.WritebackDirty_hits::total            23038                       # number of WritebackDirty hits
system.l2.WritebackDirty_accesses::.writebacks        23038                       # number of WritebackDirty accesses(hits+misses)
system.l2.WritebackDirty_accesses::total        23038                       # number of WritebackDirty accesses(hits+misses)
system.l2.WritebackClean_hits::.writebacks       373168                       # number of WritebackClean hits
system.l2.WritebackClean_hits::total           373168                       # number of WritebackClean hits
system.l2.WritebackClean_accesses::.writebacks       373168                       # number of WritebackClean accesses(hits+misses)
system.l2.WritebackClean_accesses::total       373168                       # number of WritebackClean accesses(hits+misses)
system.l2.CleanEvict_mshr_misses::.writebacks          157                       # number of CleanEvict MSHR misses
system.l2.CleanEvict_mshr_misses::total           157                       # number of CleanEvict MSHR misses
system.l2.CleanEvict_mshr_miss_rate::.writebacks          inf                       # mshr miss rate for CleanEvict accesses
system.l2.CleanEvict_mshr_miss_rate::total          inf                       # mshr miss rate for CleanEvict accesses
system.l2.ReadExReq_hits::.cpu.data             16566                       # number of ReadExReq hits
system.l2.ReadExReq_hits::total                 16566                       # number of ReadExReq hits
system.l2.ReadExReq_misses::.cpu.data            1260                       # number of ReadExReq misses
system.l2.ReadExReq_misses::total                1260                       # number of ReadExReq misses
system.l2.ReadExReq_miss_latency::.cpu.data    137139000                       # number of ReadExReq miss cycles
system.l2.ReadExReq_miss_latency::total     137139000                       # number of ReadExReq miss cycles
system.l2.ReadExReq_accesses::.cpu.data         17826                       # number of ReadExReq accesses(hits+misses)
system.l2.ReadExReq_accesses::total             17826                       # number of ReadExReq accesses(hits+misses)
system.l2.ReadExReq_miss_rate::.cpu.data     0.070683                       # miss rate for ReadExReq accesses
system.l2.ReadExReq_miss_rate::total         0.070683                       # miss rate for ReadExReq accesses
system.l2.ReadExReq_avg_miss_latency::.cpu.data 108840.476190                       # average ReadExReq miss latency
system.l2.ReadExReq_avg_miss_latency::total 108840.476190                       # average ReadExReq miss latency
system.l2.ReadExReq_mshr_misses::.cpu.data         1260                       # number of ReadExReq MSHR misses
system.l2.ReadExReq_mshr_misses::total           1260                       # number of ReadExReq MSHR misses
system.l2.ReadExReq_mshr_miss_latency::.cpu.data    111939000                       # number of ReadExReq MSHR miss cycles
system.l2.ReadExReq_mshr_miss_latency::total    111939000                       # number of ReadExReq MSHR miss cycles
system.l2.ReadExReq_mshr_miss_rate::.cpu.data     0.070683                       # mshr miss rate for ReadExReq accesses
system.l2.ReadExReq_mshr_miss_rate::total     0.070683                       # mshr miss rate for ReadExReq accesses
system.l2.ReadExReq_avg_mshr_miss_latency::.cpu.data 88840.476190                       # average ReadExReq mshr miss latency
system.l2.ReadExReq_avg_mshr_miss_latency::total 88840.476190                       # average ReadExReq mshr miss latency
system.l2.ReadCleanReq_hits::.cpu.inst         450886                       # number of ReadCleanReq hits
system.l2.ReadCleanReq_hits::total             450886                       # number of ReadCleanReq hits
system.l2.ReadCleanReq_misses::.cpu.inst          833                       # number of ReadCleanReq misses
system.l2.ReadCleanReq_misses::total              833                       # number of ReadCleanReq misses
system.l2.ReadCleanReq_miss_latency::.cpu.inst     98017000                       # number of ReadCleanReq miss cycles
system.l2.ReadCleanReq_miss_latency::total     98017000                       # number of ReadCleanReq miss cycles
system.l2.ReadCleanReq_accesses::.cpu.inst       451719                       # number of ReadCleanReq accesses(hits+misses)
system.l2.ReadCleanReq_accesses::total         451719                       # number of ReadCleanReq accesses(hits+misses)
system.l2.ReadCleanReq_miss_rate::.cpu.inst     0.001844                       # miss rate for ReadCleanReq accesses
system.l2.ReadCleanReq_miss_rate::total      0.001844                       # miss rate for ReadCleanReq accesses
system.l2.ReadCleanReq_avg_miss_latency::.cpu.inst 117667.466987                       # average ReadCleanReq miss latency
system.l2.ReadCleanReq_avg_miss_latency::total 117667.466987                       # average ReadCleanReq miss latency
system.l2.ReadCleanReq_mshr_misses::.cpu.inst          833                       # number of ReadCleanReq MSHR misses
system.l2.ReadCleanReq_mshr_misses::total          833                       # number of ReadCleanReq MSHR misses
system.l2.ReadCleanReq_mshr_miss_latency::.cpu.inst     81357000                       # number of ReadCleanReq MSHR miss cycles
system.l2.ReadCleanReq_mshr_miss_latency::total     81357000                       # number of ReadCleanReq MSHR miss cycles
system.l2.ReadCleanReq_mshr_miss_rate::.cpu.inst     0.001844                       # mshr miss rate for ReadCleanReq accesses
system.l2.ReadCleanReq_mshr_miss_rate::total     0.001844                       # mshr miss rate for ReadCleanReq accesses
system.l2.ReadCleanReq_avg_mshr_miss_latency::.cpu.inst 97667.466987                       # average ReadCleanReq mshr miss latency
system.l2.ReadCleanReq_avg_mshr_miss_latency::total 97667.466987                       # average ReadCleanReq mshr miss latency
system.l2.ReadSharedReq_hits::.cpu.data          6621                       # number of ReadSharedReq hits
system.l2.ReadSharedReq_hits::total              6621                       # number of ReadSharedReq hits
system.l2.ReadSharedReq_misses::.cpu.data          439                       # number of ReadSharedReq misses
system.l2.ReadSharedReq_misses::total             439                       # number of ReadSharedReq misses
system.l2.ReadSharedReq_miss_latency::.cpu.data     52383000                       # number of ReadSharedReq miss cycles
system.l2.ReadSharedReq_miss_latency::total     52383000                       # number of ReadSharedReq miss cycles
system.l2.ReadSharedReq_accesses::.cpu.data         7060                       # number of ReadSharedReq accesses(hits+misses)
system.l2.ReadSharedReq_accesses::total          7060                       # number of ReadSharedReq accesses(hits+misses)
system.l2.ReadSharedReq_miss_rate::.cpu.data     0.062181                       # miss rate for ReadSharedReq accesses
system.l2.ReadSharedReq_miss_rate::total     0.062181                       # miss rate for ReadSharedReq accesses
system.l2.ReadSharedReq_avg_miss_latency::.cpu.data 119323.462415                       # average ReadSharedReq miss latency
system.l2.ReadSharedReq_avg_miss_latency::total 119323.462415                       # average ReadSharedReq miss latency
system.l2.ReadSharedReq_mshr_hits::.cpu.data            7                       # number of ReadSharedReq MSHR hits
system.l2.ReadSharedReq_mshr_hits::total            7                       # number of ReadSharedReq MSHR hits
system.l2.ReadSharedReq_mshr_misses::.cpu.data          432                       # number of ReadSharedReq MSHR misses
system.l2.ReadSharedReq_mshr_misses::total          432                       # number of ReadSharedReq MSHR misses
system.l2.ReadSharedReq_mshr_miss_latency::.cpu.data     42819000                       # number of ReadSharedReq MSHR miss cycles
system.l2.ReadSharedReq_mshr_miss_latency::total     42819000                       # number of ReadSharedReq MSHR miss cycles
system.l2.ReadSharedReq_mshr_miss_rate::.cpu.data     0.061190                       # mshr miss rate for ReadSharedReq accesses
system.l2.ReadSharedReq_mshr_miss_rate::total     0.061190                       # mshr miss rate for ReadSharedReq accesses
system.l2.ReadSharedReq_avg_mshr_miss_latency::.cpu.data 99118.055556                       # average ReadSharedReq mshr miss latency
system.l2.ReadSharedReq_avg_mshr_miss_latency::total 99118.055556                       # average ReadSharedReq mshr miss latency
system.l2.power_state.pwrStateResidencyTicks::UNDEFINED 128495904000                       # Cumulative time (in ticks) in various power states
system.l2.tags.tagsinuse                  1244.716261                       # Cycle average of tags in use
system.l2.tags.total_refs                      873570                       # Total number of references to valid blocks.
system.l2.tags.sampled_refs                      2722                       # Sample count of references to valid blocks.
system.l2.tags.avg_refs                    320.929464                       # Average number of references to valid blocks.
system.l2.tags.warmup_cycle                    102000                       # Cycle when the warmup percentage was hit.
system.l2.tags.occ_blocks::.writebacks      34.272996                       # Average occupied blocks per requestor
system.l2.tags.occ_blocks::.cpu.inst       224.138642                       # Average occupied blocks per requestor
system.l2.tags.occ_blocks::.cpu.data       986.304622                       # Average occupied blocks per requestor
system.l2.tags.occ_percent::.writebacks      0.016735                       # Average percentage of cache occupancy
system.l2.tags.occ_percent::.cpu.inst        0.109443                       # Average percentage of cache occupancy
system.l2.tags.occ_percent::.cpu.data        0.481594                       # Average percentage of cache occupancy
system.l2.tags.occ_percent::total            0.607772                       # Average percentage of cache occupancy
system.l2.tags.occ_task_id_blocks::1024          1284                       # Occupied blocks per task id
system.l2.tags.age_task_id_blocks_1024::2            4                       # Occupied blocks per task id
system.l2.tags.age_task_id_blocks_1024::3           10                       # Occupied blocks per task id
system.l2.tags.age_task_id_blocks_1024::4         1270                       # Occupied blocks per task id
system.l2.tags.occ_task_id_percent::1024     0.626953                       # Percentage of cache occupancy per task id
system.l2.tags.tag_accesses                    876456                       # Number of tag accesses
system.l2.tags.data_accesses                   876456                       # Number of data accesses
system.l2.tags.power_state.pwrStateResidencyTicks::UNDEFINED 128495904000                       # Cumulative time (in ticks) in various power states
system.mem_ctrls.avgPriority_.writebacks::samples       669.00                       # Average QoS priority value for accepted requests
system.mem_ctrls.avgPriority_.cpu.inst::samples      3332.00                       # Average QoS priority value for accepted requests
system.mem_ctrls.avgPriority_.cpu.data::samples      5766.00                       # Average QoS priority value for accepted requests
system.mem_ctrls.priorityMinLatency      0.000000018750                       # per QoS priority minimum request to response latency (s)
system.mem_ctrls.priorityMaxLatency      0.083168580250                       # per QoS priority maximum request to response latency (s)
system.mem_ctrls.numReadWriteTurnArounds           32                       # Number of turnarounds from READ to WRITE
system.mem_ctrls.numWriteReadTurnArounds           32                       # Number of turnarounds from WRITE to READ
system.mem_ctrls.numStayReadState               44687                       # Number of times bus staying in READ state
system.mem_ctrls.numStayWriteState                618                       # Number of times bus staying in WRITE state
system.mem_ctrls.readReqs                        2525                       # Number of read requests accepted
system.mem_ctrls.writeReqs                        359                       # Number of write requests accepted
system.mem_ctrls.readBursts                     10100                       # Number of controller read bursts, including those serviced by the write queue
system.mem_ctrls.writeBursts                     1436                       # Number of controller write bursts, including those merged in the write queue
system.mem_ctrls.servicedByWrQ                   1002                       # Number of controller read bursts serviced by the write queue
system.mem_ctrls.mergedWrBursts                   767                       # Number of controller write bursts merged with an existing one
system.mem_ctrls.neitherReadNorWriteReqs            0                       # Number of requests that are neither read nor write
system.mem_ctrls.avgRdQLen                       3.89                       # Average read queue length when enqueuing
system.mem_ctrls.avgWrQLen                      29.16                       # Average write queue length when enqueuing
system.mem_ctrls.numRdRetry                         0                       # Number of times read queue was full causing retry
system.mem_ctrls.numWrRetry                         0                       # Number of times write queue was full causing retry
system.mem_ctrls.readPktSize::0                     0                       # Read request sizes (log2)
system.mem_ctrls.readPktSize::1                     0                       # Read request sizes (log2)
system.mem_ctrls.readPktSize::2                     0                       # Read request sizes (log2)
system.mem_ctrls.readPktSize::3                     0                       # Read request sizes (log2)
system.mem_ctrls.readPktSize::4                     0                       # Read request sizes (log2)
system.mem_ctrls.readPktSize::5                     0                       # Read request sizes (log2)
system.mem_ctrls.readPktSize::6                 10100                       # Read request sizes (log2)
system.mem_ctrls.readPktSize::7                     0                       # Read request sizes (log2)
system.mem_ctrls.readPktSize::8                     0                       # Read request sizes (log2)
system.mem_ctrls.writePktSize::0                    0                       # Write request sizes (log2)
system.mem_ctrls.writePktSize::1                    0                       # Write request sizes (log2)
system.mem_ctrls.writePktSize::2                    0                       # Write request sizes (log2)
system.mem_ctrls.writePktSize::3                    0                       # Write request sizes (log2)
system.mem_ctrls.writePktSize::4                    0                       # Write request sizes (log2)
system.mem_ctrls.writePktSize::5                    0                       # Write request sizes (log2)
system.mem_ctrls.writePktSize::6                 1436                       # Write request sizes (log2)
system.mem_ctrls.writePktSize::7                    0                       # Write request sizes (log2)
system.mem_ctrls.writePktSize::8                    0                       # Write request sizes (log2)
system.mem_ctrls.rdQLenPdf::0                    2202                       # What read queue length does an incoming req see
system.mem_ctrls.rdQLenPdf::1                    2190                       # What read queue length does an incoming req see
system.mem_ctrls.rdQLenPdf::2                    2195                       # What read queue length does an incoming req see
system.mem_ctrls.rdQLenPdf::3                    2199                       # What read queue length does an incoming req see
[...]
system.mem_ctrls.dram.bw_inst_read::total      1659570                       # Instruction read bandwidth from this memory (bytes/s)
system.mem_ctrls.dram.bw_write::.writebacks       715229                       # Write bandwidth from this memory (bytes/s)
system.mem_ctrls.dram.bw_write::total          715229                       # Write bandwidth from this memory (bytes/s)
system.mem_ctrls.dram.bw_total::.writebacks       715229                       # Total bandwidth to/from this memory (bytes/s)
system.mem_ctrls.dram.bw_total::.cpu.inst      1659570                       # Total bandwidth to/from this memory (bytes/s)
system.mem_ctrls.dram.bw_total::.cpu.data      3370940                       # Total bandwidth to/from this memory (bytes/s)
system.mem_ctrls.dram.bw_total::total         5745740                       # Total bandwidth to/from this memory (bytes/s)
system.mem_ctrls.dram.readBursts                 9098                       # Number of DRAM read bursts
system.mem_ctrls.dram.writeBursts                 650                       # Number of DRAM write bursts
system.mem_ctrls.dram.perBankRdBursts::0          348                       # Per bank write bursts
system.mem_ctrls.dram.perBankRdBursts::1          364                       # Per bank write bursts
system.mem_ctrls.dram.perBankRdBursts::2          308                       # Per bank write bursts
system.mem_ctrls.dram.perBankRdBursts::3          488                       # Per bank write bursts
system.mem_ctrls.dram.perBankRdBursts::4          484                       # Per bank write bursts
system.mem_ctrls.dram.perBankRdBursts::5          404                       # Per bank write bursts
system.mem_ctrls.dram.perBankRdBursts::6          428                       # Per bank write bursts
system.mem_ctrls.dram.perBankRdBursts::7          472                       # Per bank write bursts
system.mem_ctrls.dram.perBankRdBursts::8         1595                       # Per bank write bursts
system.mem_ctrls.dram.perBankRdBursts::9         1214                       # Per bank write bursts
system.mem_ctrls.dram.perBankRdBursts::10          589                       # Per bank write bursts
system.mem_ctrls.dram.perBankRdBursts::11          344                       # Per bank write bursts
system.mem_ctrls.dram.perBankRdBursts::12          328                       # Per bank write bursts
system.mem_ctrls.dram.perBankRdBursts::13          404                       # Per bank write bursts
system.mem_ctrls.dram.perBankRdBursts::14          964                       # Per bank write bursts
system.mem_ctrls.dram.perBankRdBursts::15          364                       # Per bank write bursts
system.mem_ctrls.dram.perBankWrBursts::0            4                       # Per bank write bursts
system.mem_ctrls.dram.perBankWrBursts::1           12                       # Per bank write bursts
system.mem_ctrls.dram.perBankWrBursts::2            0                       # Per bank write bursts
system.mem_ctrls.dram.perBankWrBursts::3            4                       # Per bank write bursts
system.mem_ctrls.dram.perBankWrBursts::4            0                       # Per bank write bursts
system.mem_ctrls.dram.perBankWrBursts::5            0                       # Per bank write bursts
system.mem_ctrls.dram.perBankWrBursts::6            4                       # Per bank write bursts
system.mem_ctrls.dram.perBankWrBursts::7            0                       # Per bank write bursts
system.mem_ctrls.dram.perBankWrBursts::8          241                       # Per bank write bursts
system.mem_ctrls.dram.perBankWrBursts::9          273                       # Per bank write bursts
system.mem_ctrls.dram.perBankWrBursts::10           72                       # Per bank write bursts
system.mem_ctrls.dram.perBankWrBursts::11            0                       # Per bank write bursts
system.mem_ctrls.dram.perBankWrBursts::12            0                       # Per bank write bursts
system.mem_ctrls.dram.perBankWrBursts::13            0                       # Per bank write bursts
system.mem_ctrls.dram.perBankWrBursts::14           40                       # Per bank write bursts
system.mem_ctrls.dram.perBankWrBursts::15            0                       # Per bank write bursts
system.mem_ctrls.dram.totQLat               192998750                       # Total ticks spent queuing
system.mem_ctrls.dram.totBusLat              45490000                       # Total ticks spent in databus transfers
system.mem_ctrls.dram.totMemAccLat          363586250                       # Total ticks spent from burst creation until serviced by the DRAM
system.mem_ctrls.dram.avgQLat                21213.32                       # Average queueing delay per DRAM burst
system.mem_ctrls.dram.avgBusLat               5000.00                       # Average bus latency per DRAM burst
system.mem_ctrls.dram.avgMemAccLat           39963.32                       # Average memory access latency per DRAM burst
system.mem_ctrls.dram.readRowHits                7845                       # Number of row buffer hits during reads
system.mem_ctrls.dram.writeRowHits                581                       # Number of row buffer hits during writes
system.mem_ctrls.dram.readRowHitRate            86.23                       # Row buffer hit rate for reads
system.mem_ctrls.dram.writeRowHitRate           89.38                       # Row buffer hit rate for writes
system.mem_ctrls.dram.bytesPerActivate::samples         1322                       # Bytes accessed per row activation
system.mem_ctrls.dram.bytesPerActivate::mean   471.915280                       # Bytes accessed per row activation
system.mem_ctrls.dram.bytesPerActivate::gmean   391.190484                       # Bytes accessed per row activation
system.mem_ctrls.dram.bytesPerActivate::stdev   301.821418                       # Bytes accessed per row activation
system.mem_ctrls.dram.bytesPerActivate::0-127           16      1.21%      1.21% # Bytes accessed per row activation
system.mem_ctrls.dram.bytesPerActivate::128-255            7      0.53%      1.74% # Bytes accessed per row activation
system.mem_ctrls.dram.bytesPerActivate::256-383          762     57.64%     59.38% # Bytes accessed per row activation
system.mem_ctrls.dram.bytesPerActivate::384-511            2      0.15%     59.53% # Bytes accessed per row activation
system.mem_ctrls.dram.bytesPerActivate::512-639          171     12.93%     72.47% # Bytes accessed per row activation
system.mem_ctrls.dram.bytesPerActivate::768-895          136     10.29%     82.75% # Bytes accessed per row activation
system.mem_ctrls.dram.bytesPerActivate::896-1023            2      0.15%     82.90% # Bytes accessed per row activation
system.mem_ctrls.dram.bytesPerActivate::1024-1151          226     17.10%    100.00% # Bytes accessed per row activation
system.mem_ctrls.dram.bytesPerActivate::total         1322                       # Bytes accessed per row activation
system.mem_ctrls.dram.bytesRead                582272                       # Total number of bytes read from DRAM
system.mem_ctrls.dram.bytesWritten              41600                       # Total number of bytes written to DRAM
system.mem_ctrls.dram.avgRdBW                4.531444                       # Average DRAM read bandwidth in MiBytes/s
system.mem_ctrls.dram.avgWrBW                0.323746                       # Average DRAM write bandwidth in MiBytes/s
system.mem_ctrls.dram.peakBW                 12800.00                       # Theoretical peak bandwidth in MiByte/s
system.mem_ctrls.dram.busUtil                    0.04                       # Data bus utilization in percentage
system.mem_ctrls.dram.busUtilRead                0.04                       # Data bus utilization in percentage for reads
system.mem_ctrls.dram.busUtilWrite               0.00                       # Data bus utilization in percentage for writes
system.mem_ctrls.dram.pageHitRate               86.44                       # Row buffer hit rate, read and write combined
system.mem_ctrls.dram.power_state.pwrStateResidencyTicks::UNDEFINED 128495904000                       # Cumulative time (in ticks) in various power states
system.mem_ctrls.dram.rank0.actEnergy         3277260                       # Energy for activate commands per rank (pJ)
system.mem_ctrls.dram.rank0.preEnergy         1741905                       # Energy for precharge commands per rank (pJ)
system.mem_ctrls.dram.rank0.readEnergy       23533440                       # Energy for read commands per rank (pJ)
system.mem_ctrls.dram.rank0.writeEnergy        125280                       # Energy for write commands per rank (pJ)
system.mem_ctrls.dram.rank0.refreshEnergy 10142789280.000002                       # Energy for refresh commands per rank (pJ)
system.mem_ctrls.dram.rank0.actBackEnergy   2303662410                       # Energy for active background per rank (pJ)
system.mem_ctrls.dram.rank0.preBackEnergy  47402501280                       # Energy for precharge background per rank (pJ)
system.mem_ctrls.dram.rank0.actPowerDownEnergy            0                       # Energy for active power-down per rank (pJ)
system.mem_ctrls.dram.rank0.prePowerDownEnergy            0                       # Energy for precharge power-down per rank (pJ)
system.mem_ctrls.dram.rank0.selfRefreshEnergy            0                       # Energy for self refresh per rank (pJ)
system.mem_ctrls.dram.rank0.totalEnergy   59877630855                       # Total energy per rank (pJ)
system.mem_ctrls.dram.rank0.averagePower   465.988635                       # Core power per rank (mW)
system.mem_ctrls.dram.rank0.totalIdleTime            0                       # Total Idle time Per DRAM Rank
system.mem_ctrls.dram.rank0.pwrStateTime::IDLE 123213346750                       # Time in different power states
system.mem_ctrls.dram.rank0.pwrStateTime::REF   4290520000                       # Time in different power states
system.mem_ctrls.dram.rank0.pwrStateTime::SREF            0                       # Time in different power states
system.mem_ctrls.dram.rank0.pwrStateTime::PRE_PDN            0                       # Time in different power states
system.mem_ctrls.dram.rank0.pwrStateTime::ACT    992037250                       # Time in different power states
system.mem_ctrls.dram.rank0.pwrStateTime::ACT_PDN            0                       # Time in different power states
system.mem_ctrls.dram.rank1.actEnergy         6161820                       # Energy for activate commands per rank (pJ)
system.mem_ctrls.dram.rank1.preEnergy         3275085                       # Energy for precharge commands per rank (pJ)
system.mem_ctrls.dram.rank1.readEnergy       41426280                       # Energy for read commands per rank (pJ)
system.mem_ctrls.dram.rank1.writeEnergy       3267720                       # Energy for write commands per rank (pJ)
system.mem_ctrls.dram.rank1.refreshEnergy 10142789280.000002                       # Energy for refresh commands per rank (pJ)
system.mem_ctrls.dram.rank1.actBackEnergy   2641873050                       # Energy for active background per rank (pJ)
system.mem_ctrls.dram.rank1.preBackEnergy  47117692320                       # Energy for precharge background per rank (pJ)
system.mem_ctrls.dram.rank1.actPowerDownEnergy            0                       # Energy for active power-down per rank (pJ)
system.mem_ctrls.dram.rank1.prePowerDownEnergy            0                       # Energy for precharge power-down per rank (pJ)
system.mem_ctrls.dram.rank1.selfRefreshEnergy            0                       # Energy for self refresh per rank (pJ)
system.mem_ctrls.dram.rank1.totalEnergy   59956485555                       # Total energy per rank (pJ)
system.mem_ctrls.dram.rank1.averagePower   466.602309                       # Core power per rank (mW)
system.mem_ctrls.dram.rank1.totalIdleTime            0                       # Total Idle time Per DRAM Rank
system.mem_ctrls.dram.rank1.pwrStateTime::IDLE 122468967250                       # Time in different power states
system.mem_ctrls.dram.rank1.pwrStateTime::REF   4290520000                       # Time in different power states
system.mem_ctrls.dram.rank1.pwrStateTime::SREF            0                       # Time in different power states
system.mem_ctrls.dram.rank1.pwrStateTime::PRE_PDN            0                       # Time in different power states
system.mem_ctrls.dram.rank1.pwrStateTime::ACT   1736416750                       # Time in different power states
system.mem_ctrls.dram.rank1.pwrStateTime::ACT_PDN            0                       # Time in different power states
system.mem_ctrls.power_state.pwrStateResidencyTicks::UNDEFINED 128495904000                       # Cumulative time (in ticks) in various power states
system.membus.trans_dist::ReadResp               1265                       # Transaction distribution
system.membus.trans_dist::WritebackDirty          359                       # Transaction distribution
system.membus.trans_dist::CleanEvict              749                       # Transaction distribution
system.membus.trans_dist::ReadExReq              1260                       # Transaction distribution
system.membus.trans_dist::ReadExResp             1260                       # Transaction distribution
system.membus.trans_dist::ReadSharedReq          1265                       # Transaction distribution
system.membus.pkt_count_system.l2.mem_side_port::system.mem_ctrls.port         6158                       # Packet count per connected requestor and responder (bytes)
system.membus.pkt_count::total                   6158                       # Packet count per connected requestor and responder (bytes)
system.membus.pkt_size_system.l2.mem_side_port::system.mem_ctrls.port       738304                       # Cumulative packet size per connected requestor and responder (bytes)
system.membus.pkt_size::total                  738304                       # Cumulative packet size per connected requestor and responder (bytes)
system.membus.snoops                                0                       # Total snoops (count)
system.membus.snoopTraffic                          0                       # Total snoop traffic (bytes)
system.membus.snoop_fanout::samples              2525                       # Request fanout histogram
system.membus.snoop_fanout::mean                    0                       # Request fanout histogram
system.membus.snoop_fanout::stdev                   0                       # Request fanout histogram
system.membus.snoop_fanout::underflows              0      0.00%      0.00% # Request fanout histogram
system.membus.snoop_fanout::0                    2525    100.00%    100.00% # Request fanout histogram
system.membus.snoop_fanout::1                       0      0.00%    100.00% # Request fanout histogram
system.membus.snoop_fanout::overflows               0      0.00%    100.00% # Request fanout histogram
system.membus.snoop_fanout::min_value               0                       # Request fanout histogram
system.membus.snoop_fanout::max_value               0                       # Request fanout histogram
system.membus.snoop_fanout::total                2525                       # Request fanout histogram
system.membus.power_state.pwrStateResidencyTicks::UNDEFINED 128495904000                       # Cumulative time (in ticks) in various power states
system.membus.reqLayer0.occupancy             9377000                       # Layer occupancy (ticks)
system.membus.reqLayer0.utilization               0.0                       # Layer utilization (%)
system.membus.respLayer1.occupancy           43839750                       # Layer occupancy (ticks)
system.membus.respLayer1.utilization              0.0                       # Layer utilization (%)
system.tol2bus.trans_dist::ReadResp            458779                       # Transaction distribution
system.tol2bus.trans_dist::WritebackDirty        23397                       # Transaction distribution
system.tol2bus.trans_dist::WritebackClean       451591                       # Transaction distribution
system.tol2bus.trans_dist::CleanEvict            2799                       # Transaction distribution
system.tol2bus.trans_dist::ReadExReq            17826                       # Transaction distribution
system.tol2bus.trans_dist::ReadExResp           17826                       # Transaction distribution
system.tol2bus.trans_dist::ReadCleanReq        451719                       # Transaction distribution
system.tol2bus.trans_dist::ReadSharedReq         7060                       # Transaction distribution
system.tol2bus.pkt_count_system.cpu.icache.mem_side_port::system.l2.cpu_side_port      1355029                       # Packet count per connected requestor and responder (bytes)
system.tol2bus.pkt_count_system.cpu.dcache.mem_side_port::system.l2.cpu_side_port        74530                       # Packet count per connected requestor and responder (bytes)
system.tol2bus.pkt_count::total               1429559                       # Packet count per connected requestor and responder (bytes)
system.tol2bus.pkt_size_system.cpu.icache.mem_side_port::system.l2.cpu_side_port    231247360                       # Cumulative packet size per connected requestor and responder (bytes)
system.tol2bus.pkt_size_system.cpu.dcache.mem_side_port::system.l2.cpu_side_port     12268544                       # Cumulative packet size per connected requestor and responder (bytes)
system.tol2bus.pkt_size::total              243515904                       # Cumulative packet size per connected requestor and responder (bytes)
system.tol2bus.snoops                            1438                       # Total snoops (count)
system.tol2bus.snoopTraffic                     91904                       # Total snoop traffic (bytes)
system.tol2bus.snoop_fanout::samples           478043                       # Request fanout histogram
system.tol2bus.snoop_fanout::mean            0.166807                       # Request fanout histogram
system.tol2bus.snoop_fanout::stdev           0.372989                       # Request fanout histogram
system.tol2bus.snoop_fanout::underflows             0      0.00%      0.00% # Request fanout histogram
system.tol2bus.snoop_fanout::0                 398335     83.33%     83.33% # Request fanout histogram
system.tol2bus.snoop_fanout::1                  79675     16.67%     99.99% # Request fanout histogram
system.tol2bus.snoop_fanout::2                     33      0.01%    100.00% # Request fanout histogram
system.tol2bus.snoop_fanout::overflows              0      0.00%    100.00% # Request fanout histogram
system.tol2bus.snoop_fanout::min_value              0                       # Request fanout histogram
system.tol2bus.snoop_fanout::max_value              2                       # Request fanout histogram
system.tol2bus.snoop_fanout::total             478043                       # Request fanout histogram
system.tol2bus.power_state.pwrStateResidencyTicks::UNDEFINED 128495904000                       # Cumulative time (in ticks) in various power states
system.tol2bus.reqLayer0.occupancy         4749986000                       # Layer occupancy (ticks)
system.tol2bus.reqLayer0.utilization              3.7                       # Layer utilization (%)
system.tol2bus.respLayer0.occupancy        4065471000                       # Layer occupancy (ticks)
system.tol2bus.respLayer0.utilization             3.2                       # Layer utilization (%)
system.tol2bus.respLayer1.occupancy         224034939                       # Layer occupancy (ticks)
system.tol2bus.respLayer1.utilization             0.2                       # Layer utilization (%)
system.voltage_domain.voltage                       1                       # Voltage in Volts

---------- End Simulation Statistics   ----------
