
---------- Begin Simulation Statistics ----------
final_tick                               129909166000                       # Number of ticks from beginning of simulation (restored from checkpoints and never reset)
host_inst_rate                                 400780                       # Simulator instruction rate (inst/s)
host_mem_usage                                 665552                       # Number of bytes of host memory used
host_op_rate                                   405199                       # Simulator op (including micro ops) rate (op/s)
host_seconds                                   249.51                       # Real time elapsed on the host
host_tick_rate                              520649242                       # Simulator tick rate (ticks/s)
sim_freq                                 1000000000000                       # Frequency of simulated ticks
sim_insts                                   100000000                       # Number of instructions simulated
sim_ops                                     101102842                       # Number of ops (including micro ops) simulated
sim_seconds                                  0.129909                       # Number of seconds simulated
sim_ticks                                129909166000                       # Number of ticks simulated
system.cpu.committedInsts                   100000000                       # Number of instructions committed
system.cpu.committedOps                     101102842                       # Number of ops (including micro ops) committed
system.cpu.cpi                               1.299092                       # CPI: cycles per instruction
system.cpu.discardedOps                        977691                       # Number of ops (including micro ops) which were discarded before commit
system.cpu.idleCycles                        12925076                       # Total number of cycles that the object has spent stopped
system.cpu.ipc                               0.769769                       # IPC: instructions per cycle
system.cpu.numCycles                        129909166                       # number of cpu cycles simulated
system.cpu.numFetchSuspends                         0                       # Number of times Execute suspended instruction fetching
system.cpu.numWorkItemsCompleted                    0                       # number of work items this cpu completed
system.cpu.numWorkItemsStarted                      0                       # number of work items this cpu started
system.cpu.op_class_0::No_OpClass                   0      0.00%      0.00% # Class of committed instruction
system.cpu.op_class_0::IntAlu                55116018     54.51%     54.51% # Class of committed instruction
system.cpu.op_class_0::IntMult                 167845      0.17%     54.68% # Class of committed instruction
system.cpu.op_class_0::IntDiv                       0      0.00%     54.68% # Class of committed instruction
system.cpu.op_class_0::FloatAdd                     0      0.00%     54.68% # Class of committed instruction
system.cpu.op_class_0::FloatCmp                     0      0.00%     54.68% # Class of committed instruction
system.cpu.op_class_0::FloatCvt                     0      0.00%     54.68% # Class of committed instruction
system.cpu.op_class_0::FloatMult                    0      0.00%     54.68% # Class of committed instruction
system.cpu.op_class_0::FloatMultAcc                 0      0.00%     54.68% # Class of committed instruction
system.cpu.op_class_0::FloatDiv                     0      0.00%     54.68% # Class of committed instruction
system.cpu.op_class_0::FloatMisc                    0      0.00%     54.68% # Class of committed instruction
system.cpu.op_class_0::FloatSqrt                    0      0.00%     54.68% # Class of committed instruction
system.cpu.op_class_0::SimdAdd                    376      0.00%     54.68% # Class of committed instruction
system.cpu.op_class_0::SimdAddAcc                   0      0.00%     54.68% # Class of committed instruction
system.cpu.op_class_0::SimdAlu                    466      0.00%     54.68% # Class of committed instruction
system.cpu.op_class_0::SimdCmp                    378      0.00%     54.68% # Class of committed instruction
system.cpu.op_class_0::SimdCvt                      0      0.00%     54.68% # Class of committed instruction
system.cpu.op_class_0::SimdMisc                    53      0.00%     54.68% # Class of committed instruction
system.cpu.op_class_0::SimdMult                     0      0.00%     54.68% # Class of committed instruction
system.cpu.op_class_0::SimdMultAcc                  0      0.00%     54.68% # Class of committed instruction
system.cpu.op_class_0::SimdShift                    0      0.00%     54.68% # Class of committed instruction
system.cpu.op_class_0::SimdShiftAcc                 0      0.00%     54.68% # Class of committed instruction
system.cpu.op_class_0::SimdDiv                      0      0.00%     54.68% # Class of committed instruction
system.cpu.op_class_0::SimdSqrt                     0      0.00%     54.68% # Class of committed instruction
system.cpu.op_class_0::SimdFloatAdd            267609      0.26%     54.95% # Class of committed instruction
system.cpu.op_class_0::SimdFloatAlu                 0      0.00%     54.95% # Class of committed instruction
system.cpu.op_class_0::SimdFloatCmp            259630      0.26%     55.20% # Class of committed instruction
system.cpu.op_class_0::SimdFloatCvt            161456      0.16%     55.36% # Class of committed instruction
system.cpu.op_class_0::SimdFloatDiv             54308      0.05%     55.42% # Class of committed instruction
system.cpu.op_class_0::SimdFloatMisc           483616      0.48%     55.90% # Class of committed instruction
system.cpu.op_class_0::SimdFloatMult            33524      0.03%     55.93% # Class of committed instruction
system.cpu.op_class_0::SimdFloatMultAcc         11115      0.01%     55.94% # Class of committed instruction
system.cpu.op_class_0::SimdFloatSqrt                0      0.00%     55.94% # Class of committed instruction
system.cpu.op_class_0::SimdReduceAdd                0      0.00%     55.94% # Class of committed instruction
system.cpu.op_class_0::SimdReduceAlu                0      0.00%     55.94% # Class of committed instruction
system.cpu.op_class_0::SimdReduceCmp                0      0.00%     55.94% # Class of committed instruction
system.cpu.op_class_0::SimdFloatReduceAdd            0      0.00%     55.94% # Class of committed instruction
system.cpu.op_class_0::SimdFloatReduceCmp            0      0.00%     55.94% # Class of committed instruction
system.cpu.op_class_0::SimdAes                      0      0.00%     55.94% # Class of committed instruction
system.cpu.op_class_0::SimdAesMix                   0      0.00%     55.94% # Class of committed instruction
system.cpu.op_class_0::SimdSha1Hash                 0      0.00%     55.94% # Class of committed instruction
system.cpu.op_class_0::SimdSha1Hash2                0      0.00%     55.94% # Class of committed instruction
system.cpu.op_class_0::SimdSha256Hash               0      0.00%     55.94% # Class of committed instruction
system.cpu.op_class_0::SimdSha256Hash2              0      0.00%     55.94% # Class of committed instruction
system.cpu.op_class_0::SimdShaSigma2                0      0.00%     55.94% # Class of committed instruction
system.cpu.op_class_0::SimdShaSigma3                0      0.00%     55.94% # Class of committed instruction
system.cpu.op_class_0::SimdPredAlu                  0      0.00%     55.94% # Class of committed instruction
system.cpu.op_class_0::MemRead               38167367     37.75%     93.69% # Class of committed instruction
system.cpu.op_class_0::MemWrite               6379081      6.31%    100.00% # Class of committed instruction
system.cpu.op_class_0::FloatMemRead                 0      0.00%    100.00% # Class of committed instruction
system.cpu.op_class_0::FloatMemWrite                0      0.00%    100.00% # Class of committed instruction
system.cpu.op_class_0::IprAccess                    0      0.00%    100.00% # Class of committed instruction
system.cpu.op_class_0::InstPrefetch                 0      0.00%    100.00% # Class of committed instruction
system.cpu.op_class_0::total                101102842                       # Class of committed instruction
system.cpu.tickCycles                       116984090                       # Number of cycles that the object actually ticked
system.cpu.workload.numSyscalls                    32                       # Number of system calls
system.membus.snoop_filter.hit_multi_requests            0                       # Number of requests hitting in the snoop filter with multiple (>1) holders of the requested data.
system.membus.snoop_filter.hit_multi_snoops            0                       # Number of snoops hitting in the snoop filter with multiple (>1) holders of the requested data.
system.membus.snoop_filter.hit_single_requests          106                       # Number of requests hitting in the snoop filter with a single holder of the requested data.
system.membus.snoop_filter.hit_single_snoops            0                       # Number of snoops hitting in the snoop filter with a single holder of the requested data.
system.membus.snoop_filter.tot_requests          5609                       # Total number of requests made to the snoop filter.
system.membus.snoop_filter.tot_snoops               0                       # Total number of snoops made to the snoop filter.
system.tol2bus.snoop_filter.hit_multi_requests         2484                       # Number of requests hitting in the snoop filter with multiple (>1) holders of the requested data.
system.tol2bus.snoop_filter.hit_multi_snoops            0                       # Number of snoops hitting in the snoop filter with multiple (>1) holders of the requested data.
system.tol2bus.snoop_filter.hit_single_requests       448400                       # Number of requests hitting in the snoop filter with a single holder of the requested data.
system.tol2bus.snoop_filter.hit_single_snoops          160                       # Number of snoops hitting in the snoop filter with a single holder of the requested data.
system.tol2bus.snoop_filter.tot_requests       897871                       # Total number of requests made to the snoop filter.
system.tol2bus.snoop_filter.tot_snoops            160                       # Total number of snoops made to the snoop filter.
system.clk_domain.clock                          1000                       # Clock period in ticks
system.cpu.branchPred.lookups                 6502446                       # Number of BP lookups
system.cpu.branchPred.condPredicted           5094642                       # Number of conditional branches predicted
system.cpu.branchPred.condIncorrect            349123                       # Number of conditional branches incorrect
system.cpu.branchPred.BTBLookups              4085192                       # Number of BTB lookups
system.cpu.branchPred.BTBHits                 4077857                       # Number of BTB hits
system.cpu.branchPred.BTBHitPct             99.820449                       # BTB Hit Percentage
system.cpu.branchPred.RASUsed                  312586                       # Number of times the RAS was used to get a target.
system.cpu.branchPred.RASIncorrect                  4                       # Number of incorrect RAS predictions.
system.cpu.branchPred.indirectLookups          675683                       # Number of indirect predictor lookups.
system.cpu.branchPred.indirectHits             102895                       # Number of indirect target hits.
system.cpu.branchPred.indirectMisses           572788                       # Number of indirect misses.
system.cpu.branchPred.indirectMispredicted        37437                       # Number of mispredicted indirect branches.
system.cpu.dcache.demand_hits::.cpu.data     43422034                       # number of demand (read+write) hits
system.cpu.dcache.demand_hits::total         43422034                       # number of demand (read+write) hits
system.cpu.dcache.overall_hits::.cpu.data     43430552                       # number of overall hits
system.cpu.dcache.overall_hits::total        43430552                       # number of overall hits
system.cpu.dcache.demand_misses::.cpu.data       460293                       # number of demand (read+write) misses
system.cpu.dcache.demand_misses::total         460293                       # number of demand (read+write) misses
system.cpu.dcache.overall_misses::.cpu.data       460524                       # number of overall misses
system.cpu.dcache.overall_misses::total        460524                       # number of overall misses
system.cpu.dcache.demand_miss_latency::.cpu.data  15769695000                       # number of demand (read+write) miss cycles
system.cpu.dcache.demand_miss_latency::total  15769695000                       # number of demand (read+write) miss cycles
system.cpu.dcache.overall_miss_latency::.cpu.data  15769695000                       # number of overall miss cycles
system.cpu.dcache.overall_miss_latency::total  15769695000                       # number of overall miss cycles
system.cpu.dcache.demand_accesses::.cpu.data     43882327                       # number of demand (read+write) accesses
system.cpu.dcache.demand_accesses::total     43882327                       # number of demand (read+write) accesses
system.cpu.dcache.overall_accesses::.cpu.data     43891076                       # number of overall (read+write) accesses
system.cpu.dcache.overall_accesses::total     43891076                       # number of overall (read+write) accesses
system.cpu.dcache.demand_miss_rate::.cpu.data     0.010489                       # miss rate for demand accesses
system.cpu.dcache.demand_miss_rate::total     0.010489                       # miss rate for demand accesses
system.cpu.dcache.overall_miss_rate::.cpu.data     0.010492                       # miss rate for overall accesses
system.cpu.dcache.overall_miss_rate::total     0.010492                       # miss rate for overall accesses
system.cpu.dcache.demand_avg_miss_latency::.cpu.data 34260.123443                       # average overall miss latency
system.cpu.dcache.demand_avg_miss_latency::total 34260.123443                       # average overall miss latency
system.cpu.dcache.overall_avg_miss_latency::.cpu.data 34242.938479                       # average overall miss latency
system.cpu.dcache.overall_avg_miss_latency::total 34242.938479                       # average overall miss latency
system.cpu.dcache.blocked_cycles::no_mshrs           62                       # number of cycles access was blocked
system.cpu.dcache.blocked_cycles::no_targets            0                       # number of cycles access was blocked
system.cpu.dcache.blocked::no_mshrs                 1                       # number of cycles access was blocked
system.cpu.dcache.blocked::no_targets               0                       # number of cycles access was blocked
system.cpu.dcache.avg_blocked_cycles::no_mshrs           62                       # average number of cycles each access was blocked
system.cpu.dcache.avg_blocked_cycles::no_targets          nan                       # average number of cycles each access was blocked
system.cpu.dcache.writebacks::.writebacks       436937                       # number of writebacks
system.cpu.dcache.writebacks::total            436937                       # number of writebacks
system.cpu.dcache.demand_mshr_hits::.cpu.data        18052                       # number of demand (read+write) MSHR hits
system.cpu.dcache.demand_mshr_hits::total        18052                       # number of demand (read+write) MSHR hits
system.cpu.dcache.overall_mshr_hits::.cpu.data        18052                       # number of overall MSHR hits
system.cpu.dcache.overall_mshr_hits::total        18052                       # number of overall MSHR hits
system.cpu.dcache.demand_mshr_misses::.cpu.data       442241                       # number of demand (read+write) MSHR misses
system.cpu.dcache.demand_mshr_misses::total       442241                       # number of demand (read+write) MSHR misses
system.cpu.dcache.overall_mshr_misses::.cpu.data       442455                       # number of overall MSHR misses
system.cpu.dcache.overall_mshr_misses::total       442455                       # number of overall MSHR misses
system.cpu.dcache.demand_mshr_miss_latency::.cpu.data  14312047000                       # number of demand (read+write) MSHR miss cycles
system.cpu.dcache.demand_mshr_miss_latency::total  14312047000                       # number of demand (read+write) MSHR miss cycles
system.cpu.dcache.overall_mshr_miss_latency::.cpu.data  14325172000                       # number of overall MSHR miss cycles
system.cpu.dcache.overall_mshr_miss_latency::total  14325172000                       # number of overall MSHR miss cycles
system.cpu.dcache.demand_mshr_miss_rate::.cpu.data     0.010078                       # mshr miss rate for demand accesses
system.cpu.dcache.demand_mshr_miss_rate::total     0.010078                       # mshr miss rate for demand accesses
system.cpu.dcache.overall_mshr_miss_rate::.cpu.data     0.010081                       # mshr miss rate for overall accesses
system.cpu.dcache.overall_mshr_miss_rate::total     0.010081                       # mshr miss rate for overall accesses
system.cpu.dcache.demand_avg_mshr_miss_latency::.cpu.data 32362.551188                       # average overall mshr miss latency
system.cpu.dcache.demand_avg_mshr_miss_latency::total 32362.551188                       # average overall mshr miss latency
system.cpu.dcache.overall_avg_mshr_miss_latency::.cpu.data 32376.562588                       # average overall mshr miss latency
system.cpu.dcache.overall_avg_mshr_miss_latency::total 32376.562588                       # average overall mshr miss latency
system.cpu.dcache.replacements                 442200                       # number of replacements
system.cpu.dcache.ReadReq_hits::.cpu.data     37218871                       # number of ReadReq hits
system.cpu.dcache.ReadReq_hits::total        37218871                       # number of ReadReq hits
system.cpu.dcache.ReadReq_misses::.cpu.data       342624                       # number of ReadReq misses
system.cpu.dcache.ReadReq_misses::total        342624                       # number of ReadReq misses
system.cpu.dcache.ReadReq_miss_latency::.cpu.data  11892339000                       # number of ReadReq miss cycles
system.cpu.dcache.ReadReq_miss_latency::total  11892339000                       # number of ReadReq miss cycles
system.cpu.dcache.ReadReq_accesses::.cpu.data     37561495                       # number of ReadReq accesses(hits+misses)
system.cpu.dcache.ReadReq_accesses::total     37561495                       # number of ReadReq accesses(hits+misses)
system.cpu.dcache.ReadReq_miss_rate::.cpu.data     0.009122                       # miss rate for ReadReq accesses
system.cpu.dcache.ReadReq_miss_rate::total     0.009122                       # miss rate for ReadReq accesses
system.cpu.dcache.ReadReq_avg_miss_latency::.cpu.data 34709.591272                       # average ReadReq miss latency
system.cpu.dcache.ReadReq_avg_miss_latency::total 34709.591272                       # average ReadReq miss latency
system.cpu.dcache.ReadReq_mshr_hits::.cpu.data         8255                       # number of ReadReq MSHR hits
system.cpu.dcache.ReadReq_mshr_hits::total         8255                       # number of ReadReq MSHR hits
system.cpu.dcache.ReadReq_mshr_misses::.cpu.data       334369                       # number of ReadReq MSHR misses
system.cpu.dcache.ReadReq_mshr_misses::total       334369                       # number of ReadReq MSHR misses
system.cpu.dcache.ReadReq_mshr_miss_latency::.cpu.data  11037724000                       # number of ReadReq MSHR miss cycles
system.cpu.dcache.ReadReq_mshr_miss_latency::total  11037724000                       # number of ReadReq MSHR miss cycles
system.cpu.dcache.ReadReq_mshr_miss_rate::.cpu.data     0.008902                       # mshr miss rate for ReadReq accesses
system.cpu.dcache.ReadReq_mshr_miss_rate::total     0.008902                       # mshr miss rate for ReadReq accesses
system.cpu.dcache.ReadReq_avg_mshr_miss_latency::.cpu.data 33010.608041                       # average ReadReq mshr miss latency
system.cpu.dcache.ReadReq_avg_mshr_miss_latency::total 33010.608041                       # average ReadReq mshr miss latency
system.cpu.dcache.WriteReq_hits::.cpu.data      6203163                       # number of WriteReq hits
system.cpu.dcache.WriteReq_hits::total        6203163                       # number of WriteReq hits
system.cpu.dcache.WriteReq_misses::.cpu.data       117669                       # number of WriteReq misses
system.cpu.dcache.WriteReq_misses::total       117669                       # number of WriteReq misses
system.cpu.dcache.WriteReq_miss_latency::.cpu.data   3877356000                       # number of WriteReq miss cycles
system.cpu.dcache.WriteReq_miss_latency::total   3877356000                       # number of WriteReq miss cycles
system.cpu.dcache.WriteReq_accesses::.cpu.data      6320832                       # number of WriteReq accesses(hits+misses)
system.cpu.dcache.WriteReq_accesses::total      6320832                       # number of WriteReq accesses(hits+misses)
system.cpu.dcache.WriteReq_miss_rate::.cpu.data     0.018616                       # miss rate for WriteReq accesses
system.cpu.dcache.WriteReq_miss_rate::total     0.018616                       # miss rate for WriteReq accesses
system.cpu.dcache.WriteReq_avg_miss_latency::.cpu.data 32951.380568                       # average WriteReq miss latency
system.cpu.dcache.WriteReq_avg_miss_latency::total 32951.380568                       # average WriteReq miss latency
system.cpu.dcache.WriteReq_mshr_hits::.cpu.data         9797                       # number of WriteReq MSHR hits
system.cpu.dcache.WriteReq_mshr_hits::total         9797                       # number of WriteReq MSHR hits
system.cpu.dcache.WriteReq_mshr_misses::.cpu.data       107872                       # number of WriteReq MSHR misses
system.cpu.dcache.WriteReq_mshr_misses::total       107872                       # number of WriteReq MSHR misses
system.cpu.dcache.WriteReq_mshr_miss_latency::.cpu.data   3274323000                       # number of WriteReq MSHR miss cycles
system.cpu.dcache.WriteReq_mshr_miss_latency::total   3274323000                       # number of WriteReq MSHR miss cycles
system.cpu.dcache.WriteReq_mshr_miss_rate::.cpu.data     0.017066                       # mshr miss rate for WriteReq accesses
system.cpu.dcache.WriteReq_mshr_miss_rate::total     0.017066                       # mshr miss rate for WriteReq accesses
system.cpu.dcache.WriteReq_avg_mshr_miss_latency::.cpu.data 30353.780406                       # average WriteReq mshr miss latency
system.cpu.dcache.WriteReq_avg_mshr_miss_latency::total 30353.780406                       # average WriteReq mshr miss latency
system.cpu.dcache.SoftPFReq_hits::.cpu.data         8518                       # number of SoftPFReq hits
system.cpu.dcache.SoftPFReq_hits::total          8518                       # number of SoftPFReq hits
system.cpu.dcache.SoftPFReq_misses::.cpu.data          231                       # number of SoftPFReq misses
system.cpu.dcache.SoftPFReq_misses::total          231                       # number of SoftPFReq misses
system.cpu.dcache.SoftPFReq_accesses::.cpu.data         8749                       # number of SoftPFReq accesses(hits+misses)
system.cpu.dcache.SoftPFReq_accesses::total         8749                       # number of SoftPFReq accesses(hits+misses)
system.cpu.dcache.SoftPFReq_miss_rate::.cpu.data     0.026403                       # miss rate for SoftPFReq accesses
system.cpu.dcache.SoftPFReq_miss_rate::total     0.026403                       # miss rate for SoftPFReq accesses
system.cpu.dcache.SoftPFReq_mshr_misses::.cpu.data          214                       # number of SoftPFReq MSHR misses
system.cpu.dcache.SoftPFReq_mshr_misses::total          214                       # number of SoftPFReq MSHR misses
system.cpu.dcache.SoftPFReq_mshr_miss_latency::.cpu.data     13125000                       # number of SoftPFReq MSHR miss cycles
system.cpu.dcache.SoftPFReq_mshr_miss_latency::total     13125000                       # number of SoftPFReq MSHR miss cycles
system.cpu.dcache.SoftPFReq_mshr_miss_rate::.cpu.data     0.024460                       # mshr miss rate for SoftPFReq accesses
system.cpu.dcache.SoftPFReq_mshr_miss_rate::total     0.024460                       # mshr miss rate for SoftPFReq accesses
system.cpu.dcache.SoftPFReq_avg_mshr_miss_latency::.cpu.data 61331.775701                       # average SoftPFReq mshr miss latency
system.cpu.dcache.SoftPFReq_avg_mshr_miss_latency::total 61331.775701                       # average SoftPFReq mshr miss latency
system.cpu.dcache.LoadLockedReq_hits::.cpu.data          165                       # number of LoadLockedReq hits
system.cpu.dcache.LoadLockedReq_hits::total          165                       # number of LoadLockedReq hits
system.cpu.dcache.LoadLockedReq_misses::.cpu.data            1                       # number of LoadLockedReq misses
system.cpu.dcache.LoadLockedReq_misses::total            1                       # number of LoadLockedReq misses
system.cpu.dcache.LoadLockedReq_miss_latency::.cpu.data       109000                       # number of LoadLockedReq miss cycles
system.cpu.dcache.LoadLockedReq_miss_latency::total       109000                       # number of LoadLockedReq miss cycles
system.cpu.dcache.LoadLockedReq_accesses::.cpu.data          166                       # number of LoadLockedReq accesses(hits+misses)
system.cpu.dcache.LoadLockedReq_accesses::total          166                       # number of LoadLockedReq accesses(hits+misses)
system.cpu.dcache.LoadLockedReq_miss_rate::.cpu.data     0.006024                       # miss rate for LoadLockedReq accesses
system.cpu.dcache.LoadLockedReq_miss_rate::total     0.006024                       # miss rate for LoadLockedReq accesses
system.cpu.dcache.LoadLockedReq_avg_miss_latency::.cpu.data       109000                       # average LoadLockedReq miss latency
system.cpu.dcache.LoadLockedReq_avg_miss_latency::total       109000                       # average LoadLockedReq miss latency
system.cpu.dcache.LoadLockedReq_mshr_misses::.cpu.data            1                       # number of LoadLockedReq MSHR misses
system.cpu.dcache.LoadLockedReq_mshr_misses::total            1                       # number of LoadLockedReq MSHR misses
system.cpu.dcache.LoadLockedReq_mshr_miss_latency::.cpu.data       107000                       # number of LoadLockedReq MSHR miss cycles
system.cpu.dcache.LoadLockedReq_mshr_miss_latency::total       107000                       # number of LoadLockedReq MSHR miss cycles
system.cpu.dcache.LoadLockedReq_mshr_miss_rate::.cpu.data     0.006024                       # mshr miss rate for LoadLockedReq accesses
system.cpu.dcache.LoadLockedReq_mshr_miss_rate::total     0.006024                       # mshr miss rate for LoadLockedReq accesses
system.cpu.dcache.LoadLockedReq_avg_mshr_miss_latency::.cpu.data       107000                       # average LoadLockedReq mshr miss latency
system.cpu.dcache.LoadLockedReq_avg_mshr_miss_latency::total       107000                       # average LoadLockedReq mshr miss latency
system.cpu.dcache.StoreCondReq_hits::.cpu.data          166                       # number of StoreCondReq hits
system.cpu.dcache.StoreCondReq_hits::total          166                       # number of StoreCondReq hits
system.cpu.dcache.StoreCondReq_accesses::.cpu.data          166                       # number of StoreCondReq accesses(hits+misses)
system.cpu.dcache.StoreCondReq_accesses::total          166                       # number of StoreCondReq accesses(hits+misses)
system.cpu.dcache.power_state.pwrStateResidencyTicks::UNDEFINED 129909166000                       # Cumulative time (in ticks) in various power states
system.cpu.dcache.tags.tagsinuse           255.563810                       # Cycle average of tags in use
system.cpu.dcache.tags.total_refs            43873339                       # Total number of references to valid blocks.
system.cpu.dcache.tags.sampled_refs            442456                       # Sample count of references to valid blocks.
system.cpu.dcache.tags.avg_refs             99.158649                       # Average number of references to valid blocks.
system.cpu.dcache.tags.warmup_cycle            223000                       # Cycle when the warmup percentage was hit.
system.cpu.dcache.tags.occ_blocks::.cpu.data   255.563810                       # Average occupied blocks per requestor
system.cpu.dcache.tags.occ_percent::.cpu.data     0.998296                       # Average percentage of cache occupancy
system.cpu.dcache.tags.occ_percent::total     0.998296                       # Average percentage of cache occupancy
system.cpu.dcache.tags.occ_task_id_blocks::1024          256                       # Occupied blocks per task id
system.cpu.dcache.tags.age_task_id_blocks_1024::0            9                       # Occupied blocks per task id
system.cpu.dcache.tags.age_task_id_blocks_1024::1           56                       # Occupied blocks per task id
system.cpu.dcache.tags.age_task_id_blocks_1024::2          176                       # Occupied blocks per task id
system.cpu.dcache.tags.age_task_id_blocks_1024::3           15                       # Occupied blocks per task id
system.cpu.dcache.tags.occ_task_id_percent::1024            1                       # Percentage of cache occupancy per task id
system.cpu.dcache.tags.tag_accesses          44333864                       # Number of tag accesses
system.cpu.dcache.tags.data_accesses         44333864                       # Number of data accesses
system.cpu.dcache.tags.power_state.pwrStateResidencyTicks::UNDEFINED 129909166000                       # Cumulative time (in ticks) in various power states
system.cpu.dtb.instHits                             0                       # ITB inst hits
system.cpu.dtb.instMisses                           0                       # ITB inst misses
system.cpu.dtb.readHits                             0                       # DTB read hits
system.cpu.dtb.readMisses                           0                       # DTB read misses
system.cpu.dtb.writeHits                            0                       # DTB write hits
system.cpu.dtb.writeMisses                          0                       # DTB write misses
system.cpu.dtb.inserts                              0                       # Number of times an entry is inserted into the TLB
system.cpu.dtb.flushTlb                             0                       # Number of times complete TLB was flushed
system.cpu.dtb.flushTlbMva                          0                       # Number of times TLB was flushed by MVA
system.cpu.dtb.flushTlbMvaAsid                      0                       # Number of times TLB was flushed by MVA & ASID
system.cpu.dtb.flushTlbAsid                         0                       # Number of times TLB was flushed by ASID
system.cpu.dtb.flushedEntries                       0                       # Number of entries that have been flushed from TLB
system.cpu.dtb.alignFaults                          0                       # Number of TLB faults due to alignment restrictions
system.cpu.dtb.prefetchFaults                       0                       # Number of TLB faults due to prefetch
system.cpu.dtb.domainFaults                         0                       # Number of TLB faults due to domain restrictions
system.cpu.dtb.permsFaults                          0                       # Number of TLB faults due to permissions restrictions
system.cpu.dtb.readAccesses                         0                       # DTB read accesses
system.cpu.dtb.writeAccesses                        0                       # DTB write accesses
system.cpu.dtb.instAccesses                         0                       # ITB inst accesses
system.cpu.dtb.hits                                 0                       # Total TLB (inst and data) hits
system.cpu.dtb.misses                               0                       # Total TLB (inst and data) misses
system.cpu.dtb.accesses                             0                       # Total TLB (inst and data) accesses
system.cpu.dtb.stage2_mmu.stage2_tlb.instHits            0                       # ITB inst hits
system.cpu.dtb.stage2_mmu.stage2_tlb.instMisses            0                       # ITB inst misses
system.cpu.dtb.stage2_mmu.stage2_tlb.readHits            0                       # DTB read hits
system.cpu.dtb.stage2_mmu.stage2_tlb.readMisses            0                       # DTB read misses
system.cpu.dtb.stage2_mmu.stage2_tlb.writeHits            0                       # DTB write hits
system.cpu.dtb.stage2_mmu.stage2_tlb.writeMisses            0                       # DTB write misses
system.cpu.dtb.stage2_mmu.stage2_tlb.inserts            0                       # Number of times an entry is inserted into the TLB
system.cpu.dtb.stage2_mmu.stage2_tlb.flushTlb            0                       # Number of times complete TLB was flushed
system.cpu.dtb.stage2_mmu.stage2_tlb.flushTlbMva            0                       # Number of times TLB was flushed by MVA
system.cpu.dtb.stage2_mmu.stage2_tlb.flushTlbMvaAsid            0                       # Number of times TLB was flushed by MVA & ASID
system.cpu.dtb.stage2_mmu.stage2_tlb.flushTlbAsid            0                       # Number of times TLB was flushed by ASID
system.cpu.dtb.stage2_mmu.stage2_tlb.flushedEntries            0                       # Number of entries that have been flushed from TLB
system.cpu.dtb.stage2_mmu.stage2_tlb.alignFaults            0                       # Number of TLB faults due to alignment restrictions
system.cpu.dtb.stage2_mmu.stage2_tlb.prefetchFaults            0                       # Number of TLB faults due to prefetch
system.cpu.dtb.stage2_mmu.stage2_tlb.domainFaults            0                       # Number of TLB faults due to domain restrictions
system.cpu.dtb.stage2_mmu.stage2_tlb.permsFaults            0                       # Number of TLB faults due to permissions restrictions
system.cpu.dtb.stage2_mmu.stage2_tlb.readAccesses            0                       # DTB read accesses
system.cpu.dtb.stage2_mmu.stage2_tlb.writeAccesses            0                       # DTB write accesses
system.cpu.dtb.stage2_mmu.stage2_tlb.instAccesses            0                       # ITB inst accesses
system.cpu.dtb.stage2_mmu.stage2_tlb.hits            0                       # Total TLB (inst and data) hits
system.cpu.dtb.stage2_mmu.stage2_tlb.misses            0                       # Total TLB (inst and data) misses
system.cpu.dtb.stage2_mmu.stage2_tlb.accesses            0                       # Total TLB (inst and data) accesses
system.cpu.dtb.stage2_mmu.stage2_tlb.walker.walks            0                       # Table walker walks requested
system.cpu.dtb.stage2_mmu.stage2_tlb.walker.requestOrigin_Requested::Data            0                       # Table walker requests started/completed, data/inst
system.cpu.dtb.stage2_mmu.stage2_tlb.walker.requestOrigin_Requested::Inst            0                       # Table walker requests started/completed, data/inst
system.cpu.dtb.stage2_mmu.stage2_tlb.walker.requestOrigin_Requested::total            0                       # Table walker requests started/completed, data/inst
system.cpu.dtb.stage2_mmu.stage2_tlb.walker.requestOrigin_Completed::Data            0                       # Table walker requests started/completed, data/inst
system.cpu.dtb.stage2_mmu.stage2_tlb.walker.requestOrigin_Completed::Inst            0                       # Table walker requests started/completed, data/inst
system.cpu.dtb.stage2_mmu.stage2_tlb.walker.requestOrigin_Completed::total            0                       # Table walker requests started/completed, data/inst
system.cpu.dtb.stage2_mmu.stage2_tlb.walker.requestOrigin::total            0                       # Table walker requests started/completed, data/inst
system.cpu.dtb.stage2_mmu.stage2_tlb.walker.power_state.pwrStateResidencyTicks::UNDEFINED 129909166000                       # Cumulative time (in ticks) in various power states
system.cpu.dtb.walker.walks                         0                       # Table walker walks requested
system.cpu.dtb.walker.requestOrigin_Requested::Data            0                       # Table walker requests started/completed, data/inst
system.cpu.dtb.walker.requestOrigin_Requested::Inst            0                       # Table walker requests started/completed, data/inst
system.cpu.dtb.walker.requestOrigin_Requested::total            0                       # Table walker requests started/completed, data/inst
system.cpu.dtb.walker.requestOrigin_Completed::Data            0                       # Table walker requests started/completed, data/inst
system.cpu.dtb.walker.requestOrigin_Completed::Inst            0                       # Table walker requests started/completed, data/inst
system.cpu.dtb.walker.requestOrigin_Completed::total            0                       # Table walker requests started/completed, data/inst
system.cpu.dtb.walker.requestOrigin::total            0                       # Table walker requests started/completed, data/inst
system.cpu.dtb.walker.power_state.pwrStateResidencyTicks::UNDEFINED 129909166000                       # Cumulative time (in ticks) in various power states
system.cpu.fetch2.intInstructions            48870030                       # Number of integer instructions successfully decoded
system.cpu.fetch2.fpInstructions                    0                       # Number of floating point instructions successfully decoded
system.cpu.fetch2.vecInstructions                   0                       # Number of SIMD instructions successfully decoded
system.cpu.fetch2.loadInstructions           40556159                       # Number of memory load instructions successfully decoded
system.cpu.fetch2.storeInstructions           6266117                       # Number of memory store instructions successfully decoded
system.cpu.fetch2.amoInstructions                   0                       # Number of memory atomic instructions successfully decoded
system.cpu.icache.demand_hits::.cpu.inst     17285708                       # number of demand (read+write) hits
system.cpu.icache.demand_hits::total         17285708                       # number of demand (read+write) hits
system.cpu.icache.overall_hits::.cpu.inst     17285708                       # number of overall hits
system.cpu.icache.overall_hits::total        17285708                       # number of overall hits
system.cpu.icache.demand_misses::.cpu.inst         7015                       # number of demand (read+write) misses
system.cpu.icache.demand_misses::total           7015                       # number of demand (read+write) misses
system.cpu.icache.overall_misses::.cpu.inst         7015                       # number of overall misses
system.cpu.icache.overall_misses::total          7015                       # number of overall misses
system.cpu.icache.demand_miss_latency::.cpu.inst    282659000                       # number of demand (read+write) miss cycles
system.cpu.icache.demand_miss_latency::total    282659000                       # number of demand (read+write) miss cycles
system.cpu.icache.overall_miss_latency::.cpu.inst    282659000                       # number of overall miss cycles
system.cpu.icache.overall_miss_latency::total    282659000                       # number of overall miss cycles
system.cpu.icache.demand_accesses::.cpu.inst     17292723                       # number of demand (read+write) accesses
system.cpu.icache.demand_accesses::total     17292723                       # number of demand (read+write) accesses
system.cpu.icache.overall_accesses::.cpu.inst     17292723                       # number of overall (read+write) accesses
system.cpu.icache.overall_accesses::total     17292723                       # number of overall (read+write) accesses
system.cpu.icache.demand_miss_rate::.cpu.inst     0.000406                       # miss rate for demand accesses
system.cpu.icache.demand_miss_rate::total     0.000406                       # miss rate for demand accesses
system.cpu.icache.overall_miss_rate::.cpu.inst     0.000406                       # miss rate for overall accesses
system.cpu.icache.overall_miss_rate::total     0.000406                       # miss rate for overall accesses
system.cpu.icache.demand_avg_miss_latency::.cpu.inst 40293.513899                       # average overall miss latency
system.cpu.icache.demand_avg_miss_latency::total 40293.513899                       # average overall miss latency
system.cpu.icache.overall_avg_miss_latency::.cpu.inst 40293.513899                       # average overall miss latency
system.cpu.icache.overall_avg_miss_latency::total 40293.513899                       # average overall miss latency
system.cpu.icache.blocked_cycles::no_mshrs            0                       # number of cycles access was blocked
system.cpu.icache.blocked_cycles::no_targets            0                       # number of cycles access was blocked
system.cpu.icache.blocked::no_mshrs                 0                       # number of cycles access was blocked
system.cpu.icache.blocked::no_targets               0                       # number of cycles access was blocked
system.cpu.icache.avg_blocked_cycles::no_mshrs          nan                       # average number of cycles each access was blocked
system.cpu.icache.avg_blocked_cycles::no_targets          nan                       # average number of cycles each access was blocked
system.cpu.icache.writebacks::.writebacks         6200                       # number of writebacks
system.cpu.icache.writebacks::total              6200                       # number of writebacks
system.cpu.icache.demand_mshr_misses::.cpu.inst         7015                       # number of demand (read+write) MSHR misses
system.cpu.icache.demand_mshr_misses::total         7015                       # number of demand (read+write) MSHR misses
system.cpu.icache.overall_mshr_misses::.cpu.inst         7015                       # number of overall MSHR misses
system.cpu.icache.overall_mshr_misses::total         7015                       # number of overall MSHR misses
system.cpu.icache.demand_mshr_miss_latency::.cpu.inst    268629000                       # number of demand (read+write) MSHR miss cycles
system.cpu.icache.demand_mshr_miss_latency::total    268629000                       # number of demand (read+write) MSHR miss cycles
system.cpu.icache.overall_mshr_miss_latency::.cpu.inst    268629000                       # number of overall MSHR miss cycles
system.cpu.icache.overall_mshr_miss_latency::total    268629000                       # number of overall MSHR miss cycles
system.cpu.icache.demand_mshr_miss_rate::.cpu.inst     0.000406                       # mshr miss rate for demand accesses
system.cpu.icache.demand_mshr_miss_rate::total     0.000406                       # mshr miss rate for demand accesses
system.cpu.icache.overall_mshr_miss_rate::.cpu.inst     0.000406                       # mshr miss rate for overall accesses
system.cpu.icache.overall_mshr_miss_rate::total     0.000406                       # mshr miss rate for overall accesses
system.cpu.icache.demand_avg_mshr_miss_latency::.cpu.inst 38293.513899                       # average overall mshr miss latency
system.cpu.icache.demand_avg_mshr_miss_latency::total 38293.513899                       # average overall mshr miss latency
system.cpu.icache.overall_avg_mshr_miss_latency::.cpu.inst 38293.513899                       # average overall mshr miss latency
system.cpu.icache.overall_avg_mshr_miss_latency::total 38293.513899                       # average overall mshr miss latency
system.cpu.icache.replacements                   6200                       # number of replacements
system.cpu.icache.ReadReq_hits::.cpu.inst     17285708                       # number of ReadReq hits
system.cpu.icache.ReadReq_hits::total        17285708                       # number of ReadReq hits
system.cpu.icache.ReadReq_misses::.cpu.inst         7015                       # number of ReadReq misses
system.cpu.icache.ReadReq_misses::total          7015                       # number of ReadReq misses
system.cpu.icache.ReadReq_miss_latency::.cpu.inst    282659000                       # number of ReadReq miss cycles
system.cpu.icache.ReadReq_miss_latency::total    282659000                       # number of ReadReq miss cycles
system.cpu.icache.ReadReq_accesses::.cpu.inst     17292723                       # number of ReadReq accesses(hits+misses)
system.cpu.icache.ReadReq_accesses::total     17292723                       # number of ReadReq accesses(hits+misses)
system.cpu.icache.ReadReq_miss_rate::.cpu.inst     0.000406                       # miss rate for ReadReq accesses
system.cpu.icache.ReadReq_miss_rate::total     0.000406                       # miss rate for ReadReq accesses
system.cpu.icache.ReadReq_avg_miss_latency::.cpu.inst 40293.513899                       # average ReadReq miss latency
system.cpu.icache.ReadReq_avg_miss_latency::total 40293.513899                       # average ReadReq miss latency
system.cpu.icache.ReadReq_mshr_misses::.cpu.inst         7015                       # number of ReadReq MSHR misses
system.cpu.icache.ReadReq_mshr_misses::total         7015                       # number of ReadReq MSHR misses
system.cpu.icache.ReadReq_mshr_miss_latency::.cpu.inst    268629000                       # number of ReadReq MSHR miss cycles
system.cpu.icache.ReadReq_mshr_miss_latency::total    268629000                       # number of ReadReq MSHR miss cycles
system.cpu.icache.ReadReq_mshr_miss_rate::.cpu.inst     0.000406                       # mshr miss rate for ReadReq accesses
system.cpu.icache.ReadReq_mshr_miss_rate::total     0.000406                       # mshr miss rate for ReadReq accesses
system.cpu.icache.ReadReq_avg_mshr_miss_latency::.cpu.inst 38293.513899                       # average ReadReq mshr miss latency
system.cpu.icache.ReadReq_avg_mshr_miss_latency::total 38293.513899                       # average ReadReq mshr miss latency
system.cpu.icache.power_state.pwrStateResidencyTicks::UNDEFINED 129909166000                       # Cumulative time (in ticks) in various power states
system.cpu.icache.tags.tagsinuse           812.619531                       # Cycle average of tags in use
system.cpu.icache.tags.total_refs            17292723                       # Total number of references to valid blocks.
system.cpu.icache.tags.sampled_refs              7015                       # Sample count of references to valid blocks.
system.cpu.icache.tags.avg_refs           2465.106629                       # Average number of references to valid blocks.
system.cpu.icache.tags.warmup_cycle            108000                       # Cycle when the warmup percentage was hit.
system.cpu.icache.tags.occ_blocks::.cpu.inst   812.619531                       # Average occupied blocks per requestor
system.cpu.icache.tags.occ_percent::.cpu.inst     0.793574                       # Average percentage of cache occupancy
system.cpu.icache.tags.occ_percent::total     0.793574                       # Average percentage of cache occupancy
system.cpu.icache.tags.occ_task_id_blocks::1024          815                       # Occupied blocks per task id
system.cpu.icache.tags.age_task_id_blocks_1024::2            2                       # Occupied blocks per task id
system.cpu.icache.tags.age_task_id_blocks_1024::3            2                       # Occupied blocks per task id
system.cpu.icache.tags.age_task_id_blocks_1024::4          811                       # Occupied blocks per task id
system.cpu.icache.tags.occ_task_id_percent::1024     0.795898                       # Percentage of cache occupancy per task id
system.cpu.icache.tags.tag_accesses          17299738                       # Number of tag accesses
system.cpu.icache.tags.data_accesses         17299738                       # Number of data accesses
system.cpu.icache.tags.power_state.pwrStateResidencyTicks::UNDEFINED 129909166000                       # Cumulative time (in ticks) in various power states
system.cpu.itb.instHits                             0                       # ITB inst hits
system.cpu.itb.instMisses                           0                       # ITB inst misses
system.cpu.itb.readHits                             0                       # DTB read hits
system.cpu.itb.readMisses                           0                       # DTB read misses
system.cpu.itb.writeHits                            0                       # DTB write hits
system.cpu.itb.writeMisses                          0                       # DTB write misses
system.cpu.itb.inserts                              0                       # Number of times an entry is inserted into the TLB
system.cpu.itb.flushTlb                             0                       # Number of times complete TLB was flushed
system.cpu.itb.flushTlbMva                          0                       # Number of times TLB was flushed by MVA
system.cpu.itb.flushTlbMvaAsid                      0                       # Number of times TLB was flushed by MVA & ASID
system.cpu.itb.flushTlbAsid                         0                       # Number of times TLB was flushed by ASID
system.cpu.itb.flushedEntries                       0                       # Number of entries that have been flushed from TLB
system.cpu.itb.alignFaults                          0                       # Number of TLB faults due to alignment restrictions
system.cpu.itb.prefetchFaults                       0                       # Number of TLB faults due to prefetch
system.cpu.itb.domainFaults                         0                       # Number of TLB faults due to domain restrictions
system.cpu.itb.permsFaults                          0                       # Number of TLB faults due to permissions restrictions
system.cpu.itb.readAccesses                         0                       # DTB read accesses
system.cpu.itb.writeAccesses                        0                       # DTB write accesses
system.cpu.itb.instAccesses                         0                       # ITB inst accesses
system.cpu.itb.hits                                 0                       # Total TLB (inst and data) hits
system.cpu.itb.misses                               0                       # Total TLB (inst and data) misses
system.cpu.itb.accesses                             0                       # Total TLB (inst and data) accesses
system.cpu.itb.stage2_mmu.stage2_tlb.instHits            0                       # ITB inst hits
system.cpu.itb.stage2_mmu.stage2_tlb.instMisses            0                       # ITB inst misses
system.cpu.itb.stage2_mmu.stage2_tlb.readHits            0                       # DTB read hits
system.cpu.itb.stage2_mmu.stage2_tlb.readMisses            0                       # DTB read misses
system.cpu.itb.stage2_mmu.stage2_tlb.writeHits            0                       # DTB write hits
system.cpu.itb.stage2_mmu.stage2_tlb.writeMisses            0                       # DTB write misses
system.cpu.itb.stage2_mmu.stage2_tlb.inserts            0                       # Number of times an entry is inserted into the TLB
system.cpu.itb.stage2_mmu.stage2_tlb.flushTlb            0                       # Number of times complete TLB was flushed
system.cpu.itb.stage2_mmu.stage2_tlb.flushTlbMva            0                       # Number of times TLB was flushed by MVA
system.cpu.itb.stage2_mmu.stage2_tlb.flushTlbMvaAsid            0                       # Number of times TLB was flushed by MVA & ASID
system.cpu.itb.stage2_mmu.stage2_tlb.flushTlbAsid            0                       # Number of times TLB was flushed by ASID
system.cpu.itb.stage2_mmu.stage2_tlb.flushedEntries            0                       # Number of entries that have been flushed from TLB
system.cpu.itb.stage2_mmu.stage2_tlb.alignFaults            0                       # Number of TLB faults due to alignment restrictions
system.cpu.itb.stage2_mmu.stage2_tlb.prefetchFaults            0                       # Number of TLB faults due to prefetch
system.cpu.itb.stage2_mmu.stage2_tlb.domainFaults            0                       # Number of TLB faults due to domain restrictions
system.cpu.itb.stage2_mmu.stage2_tlb.permsFaults            0                       # Number of TLB faults due to permissions restrictions
system.cpu.itb.stage2_mmu.stage2_tlb.readAccesses            0                       # DTB read accesses
system.cpu.itb.stage2_mmu.stage2_tlb.writeAccesses            0                       # DTB write accesses
system.cpu.itb.stage2_mmu.stage2_tlb.instAccesses            0                       # ITB inst accesses
system.cpu.itb.stage2_mmu.stage2_tlb.hits            0                       # Total TLB (inst and data) hits
system.cpu.itb.stage2_mmu.stage2_tlb.misses            0                       # Total TLB (inst and data) misses
system.cpu.itb.stage2_mmu.stage2_tlb.accesses            0                       # Total TLB (inst and data) accesses
system.cpu.itb.stage2_mmu.stage2_tlb.walker.walks            0                       # Table walker walks requested
system.cpu.itb.stage2_mmu.stage2_tlb.walker.requestOrigin_Requested::Data            0                       # Table walker requests started/completed, data/inst
system.cpu.itb.stage2_mmu.stage2_tlb.walker.requestOrigin_Requested::Inst            0                       # Table walker requests started/completed, data/inst
system.cpu.itb.stage2_mmu.stage2_tlb.walker.requestOrigin_Requested::total            0                       # Table walker requests started/completed, data/inst
system.cpu.itb.stage2_mmu.stage2_tlb.walker.requestOrigin_Completed::Data            0                       # Table walker requests started/completed, data/inst
system.cpu.itb.stage2_mmu.stage2_tlb.walker.requestOrigin_Completed::Inst            0                       # Table walker requests started/completed, data/inst
system.cpu.itb.stage2_mmu.stage2_tlb.walker.requestOrigin_Completed::total            0                       # Table walker requests started/completed, data/inst
system.cpu.itb.stage2_mmu.stage2_tlb.walker.requestOrigin::total            0                       # Table walker requests started/completed, data/inst
system.cpu.itb.stage2_mmu.stage2_tlb.walker.power_state.pwrStateResidencyTicks::UNDEFINED 129909166000                       # Cumulative time (in ticks) in various power states
system.cpu.itb.walker.walks                         0                       # Table walker walks requested
system.cpu.itb.walker.requestOrigin_Requested::Data            0                       # Table walker requests started/completed, data/inst
system.cpu.itb.walker.requestOrigin_Requested::Inst            0                       # Table walker requests started/completed, data/inst
system.cpu.itb.walker.requestOrigin_Requested::total            0                       # Table walker requests started/completed, data/inst
system.cpu.itb.walker.requestOrigin_Completed::Data            0                       # Table walker requests started/completed, data/inst
system.cpu.itb.walker.requestOrigin_Completed::Inst            0                       # Table walker requests started/completed, data/inst
system.cpu.itb.walker.requestOrigin_Completed::total            0                       # Table walker requests started/completed, data/inst
system.cpu.itb.walker.requestOrigin::total            0                       # Table walker requests started/completed, data/inst
system.cpu.itb.walker.power_state.pwrStateResidencyTicks::UNDEFINED 129909166000                       # Cumulative time (in ticks) in various power states
system.cpu.power_state.pwrStateResidencyTicks::ON 129909166000                       # Cumulative time (in ticks) in various power states
system.cpu.thread_0.numInsts                100000000                       # Number of Instructions committed
system.cpu.thread_0.numOps                  101102842                       # Number of Ops committed
system.cpu.thread_0.numMemRefs                      0                       # Number of Memory References
system.cpu_clk_domain.clock                      1000                       # Clock period in ticks
system.cpu_voltage_domain.voltage                   1                       # Voltage in Volts
system.l2.demand_hits::.cpu.inst                 5709                       # number of demand (read+write) hits
system.l2.demand_hits::.cpu.data               438252                       # number of demand (read+write) hits
system.l2.demand_hits::total                   443961                       # number of demand (read+write) hits
system.l2.overall_hits::.cpu.inst                5709                       # number of overall hits
system.l2.overall_hits::.cpu.data              438252                       # number of overall hits
system.l2.overall_hits::total                  443961                       # number of overall hits
system.l2.demand_misses::.cpu.inst               1306                       # number of demand (read+write) misses
system.l2.demand_misses::.cpu.data               4204                       # number of demand (read+write) misses
system.l2.demand_misses::total                   5510                       # number of demand (read+write) misses
system.l2.overall_misses::.cpu.inst              1306                       # number of overall misses
system.l2.overall_misses::.cpu.data              4204                       # number of overall misses
system.l2.overall_misses::total                  5510                       # number of overall misses
system.l2.demand_miss_latency::.cpu.inst    126535000                       # number of demand (read+write) miss cycles
system.l2.demand_miss_latency::.cpu.data    416469000                       # number of demand (read+write) miss cycles
system.l2.demand_miss_latency::total        543004000                       # number of demand (read+write) miss cycles
system.l2.overall_miss_latency::.cpu.inst    126535000                       # number of overall miss cycles
system.l2.overall_miss_latency::.cpu.data    416469000                       # number of overall miss cycles
system.l2.overall_miss_latency::total       543004000                       # number of overall miss cycles
system.l2.demand_accesses::.cpu.inst             7015                       # number of demand (read+write) accesses
system.l2.demand_accesses::.cpu.data           442456                       # number of demand (read+write) accesses
system.l2.demand_accesses::total               449471                       # number of demand (read+write) accesses
system.l2.overall_accesses::.cpu.inst            7015                       # number of overall (read+write) accesses
system.l2.overall_accesses::.cpu.data          442456                       # number of overall (read+write) accesses
system.l2.overall_accesses::total              449471                       # number of overall (read+write) accesses
system.l2.demand_miss_rate::.cpu.inst        0.186172                       # miss rate for demand accesses
system.l2.demand_miss_rate::.cpu.data        0.009502                       # miss rate for demand accesses
system.l2.demand_miss_rate::total            0.012259                       # miss rate for demand accesses
system.l2.overall_miss_rate::.cpu.inst       0.186172                       # miss rate for overall accesses
system.l2.overall_miss_rate::.cpu.data       0.009502                       # miss rate for overall accesses
system.l2.overall_miss_rate::total           0.012259                       # miss rate for overall accesses
system.l2.demand_avg_miss_latency::.cpu.inst 96887.442573                       # average overall miss latency
system.l2.demand_avg_miss_latency::.cpu.data 99064.938154                       # average overall miss latency
system.l2.demand_avg_miss_latency::total 98548.820327                       # average overall miss latency
system.l2.overall_avg_miss_latency::.cpu.inst 96887.442573                       # average overall miss latency
system.l2.overall_avg_miss_latency::.cpu.data 99064.938154                       # average overall miss latency
system.l2.overall_avg_miss_latency::total 98548.820327                       # average overall miss latency
system.l2.blocked_cycles::no_mshrs                  0                       # number of cycles access was blocked
system.l2.blocked_cycles::no_targets                0                       # number of cycles access was blocked
system.l2.blocked::no_mshrs                         0                       # number of cycles access was blocked
system.l2.blocked::no_targets                       0                       # number of cycles access was blocked
system.l2.avg_blocked_cycles::no_mshrs            nan                       # average number of cycles each access was blocked
system.l2.avg_blocked_cycles::no_targets          nan                       # average number of cycles each access was blocked
system.l2.writebacks::.writebacks                  10                       # number of writebacks
system.l2.writebacks::total                        10                       # number of writebacks
system.l2.demand_mshr_hits::.cpu.data               6                       # number of demand (read+write) MSHR hits
system.l2.demand_mshr_hits::total                   6                       # number of demand (read+write) MSHR hits
system.l2.overall_mshr_hits::.cpu.data              6                       # number of overall MSHR hits
system.l2.overall_mshr_hits::total                  6                       # number of overall MSHR hits
system.l2.demand_mshr_misses::.cpu.inst          1306                       # number of demand (read+write) MSHR misses
system.l2.demand_mshr_misses::.cpu.data          4198                       # number of demand (read+write) MSHR misses
system.l2.demand_mshr_misses::total              5504                       # number of demand (read+write) MSHR misses
system.l2.overall_mshr_misses::.cpu.inst         1306                       # number of overall MSHR misses
system.l2.overall_mshr_misses::.cpu.data         4198                       # number of overall MSHR misses
system.l2.overall_mshr_misses::total             5504                       # number of overall MSHR misses
system.l2.demand_mshr_miss_latency::.cpu.inst    100415000                       # number of demand (read+write) MSHR miss cycles
system.l2.demand_mshr_miss_latency::.cpu.data    331792000                       # number of demand (read+write) MSHR miss cycles
system.l2.demand_mshr_miss_latency::total    432207000                       # number of demand (read+write) MSHR miss cycles
system.l2.overall_mshr_miss_latency::.cpu.inst    100415000                       # number of overall MSHR miss cycles
system.l2.overall_mshr_miss_latency::.cpu.data    331792000                       # number of overall MSHR miss cycles
system.l2.overall_mshr_miss_latency::total    432207000                       # number of overall MSHR miss cycles
system.l2.demand_mshr_miss_rate::.cpu.inst     0.186172                       # mshr miss rate for demand accesses
system.l2.demand_mshr_miss_rate::.cpu.data     0.009488                       # mshr miss rate for demand accesses
system.l2.demand_mshr_miss_rate::total       0.012246                       # mshr miss rate for demand accesses
system.l2.overall_mshr_miss_rate::.cpu.inst     0.186172                       # mshr miss rate for overall accesses
system.l2.overall_mshr_miss_rate::.cpu.data     0.009488                       # mshr miss rate for overall accesses
system.l2.overall_mshr_miss_rate::total      0.012246                       # mshr miss rate for overall accesses
system.l2.demand_avg_mshr_miss_latency::.cpu.inst 76887.442573                       # average overall mshr miss latency
system.l2.demand_avg_mshr_miss_latency::.cpu.data 79035.731301                       # average overall mshr miss latency
system.l2.demand_avg_mshr_miss_latency::total 78525.981105                       # average overall mshr miss latency
system.l2.overall_avg_mshr_miss_latency::.cpu.inst 76887.442573                       # average overall mshr miss latency
system.l2.overall_avg_mshr_miss_latency::.cpu.data 79035.731301                       # average overall mshr miss latency
system.l2.overall_avg_mshr_miss_latency::total 78525.981105                       # average overall mshr miss latency
system.l2.replacements                            263                       # number of replacements
system.l2.WritebackDirty_hits::.writebacks       436937                       # number of WritebackDirty hits
system.l2.WritebackDirty_hits::total           436937                       # number of WritebackDirty hits
system.l2.WritebackDirty_accesses::.writebacks       436937                       # number of WritebackDirty accesses(hits+misses)
system.l2.WritebackDirty_accesses::total       436937                       # number of WritebackDirty accesses(hits+misses)
system.l2.WritebackClean_hits::.writebacks         5695                       # number of WritebackClean hits
system.l2.WritebackClean_hits::total             5695                       # number of WritebackClean hits
system.l2.WritebackClean_accesses::.writebacks         5695                       # number of WritebackClean accesses(hits+misses)
system.l2.WritebackClean_accesses::total         5695                       # number of WritebackClean accesses(hits+misses)
system.l2.CleanEvict_mshr_misses::.writebacks            2                       # number of CleanEvict MSHR misses
system.l2.CleanEvict_mshr_misses::total             2                       # number of CleanEvict MSHR misses
system.l2.CleanEvict_mshr_miss_rate::.writebacks          inf                       # mshr miss rate for CleanEvict accesses
system.l2.CleanEvict_mshr_miss_rate::total          inf                       # mshr miss rate for CleanEvict accesses
system.l2.ReadExReq_hits::.cpu.data            104227                       # number of ReadExReq hits
system.l2.ReadExReq_hits::total                104227                       # number of ReadExReq hits
system.l2.ReadExReq_misses::.cpu.data            3666                       # number of ReadExReq misses
system.l2.ReadExReq_misses::total                3666                       # number of ReadExReq misses
system.l2.ReadExReq_miss_latency::.cpu.data    361709000                       # number of ReadExReq miss cycles
system.l2.ReadExReq_miss_latency::total     361709000                       # number of ReadExReq miss cycles
system.l2.ReadExReq_accesses::.cpu.data        107893                       # number of ReadExReq accesses(hits+misses)
system.l2.ReadExReq_accesses::total            107893                       # number of ReadExReq accesses(hits+misses)
system.l2.ReadExReq_miss_rate::.cpu.data     0.033978                       # miss rate for ReadExReq accesses
system.l2.ReadExReq_miss_rate::total         0.033978                       # miss rate for ReadExReq accesses
system.l2.ReadExReq_avg_miss_latency::.cpu.data 98665.848336                       # average ReadExReq miss latency
system.l2.ReadExReq_avg_miss_latency::total 98665.848336                       # average ReadExReq miss latency
system.l2.ReadExReq_mshr_misses::.cpu.data         3666                       # number of ReadExReq MSHR misses
system.l2.ReadExReq_mshr_misses::total           3666                       # number of ReadExReq MSHR misses
system.l2.ReadExReq_mshr_miss_latency::.cpu.data    288389000                       # number of ReadExReq MSHR miss cycles
system.l2.ReadExReq_mshr_miss_latency::total    288389000                       # number of ReadExReq MSHR miss cycles
system.l2.ReadExReq_mshr_miss_rate::.cpu.data     0.033978                       # mshr miss rate for ReadExReq accesses
system.l2.ReadExReq_mshr_miss_rate::total     0.033978                       # mshr miss rate for ReadExReq accesses
system.l2.ReadExReq_avg_mshr_miss_latency::.cpu.data 78665.848336                       # average ReadExReq mshr miss latency
system.l2.ReadExReq_avg_mshr_miss_latency::total 78665.848336                       # average ReadExReq mshr miss latency
system.l2.ReadCleanReq_hits::.cpu.inst           5709                       # number of ReadCleanReq hits
system.l2.ReadCleanReq_hits::total               5709                       # number of ReadCleanReq hits
system.l2.ReadCleanReq_misses::.cpu.inst         1306                       # number of ReadCleanReq misses
system.l2.ReadCleanReq_misses::total             1306                       # number of ReadCleanReq misses
system.l2.ReadCleanReq_miss_latency::.cpu.inst    126535000                       # number of ReadCleanReq miss cycles
system.l2.ReadCleanReq_miss_latency::total    126535000                       # number of ReadCleanReq miss cycles
system.l2.ReadCleanReq_accesses::.cpu.inst         7015                       # number of ReadCleanReq accesses(hits+misses)
system.l2.ReadCleanReq_accesses::total           7015                       # number of ReadCleanReq accesses(hits+misses)
system.l2.ReadCleanReq_miss_rate::.cpu.inst     0.186172                       # miss rate for ReadCleanReq accesses
system.l2.ReadCleanReq_miss_rate::total      0.186172                       # miss rate for ReadCleanReq accesses
system.l2.ReadCleanReq_avg_miss_latency::.cpu.inst 96887.442573                       # average ReadCleanReq miss latency
system.l2.ReadCleanReq_avg_miss_latency::total 96887.442573                       # average ReadCleanReq miss latency
system.l2.ReadCleanReq_mshr_misses::.cpu.inst         1306                       # number of ReadCleanReq MSHR misses
system.l2.ReadCleanReq_mshr_misses::total         1306                       # number of ReadCleanReq MSHR misses
system.l2.ReadCleanReq_mshr_miss_latency::.cpu.inst    100415000                       # number of ReadCleanReq MSHR miss cycles
system.l2.ReadCleanReq_mshr_miss_latency::total    100415000                       # number of ReadCleanReq MSHR miss cycles
system.l2.ReadCleanReq_mshr_miss_rate::.cpu.inst     0.186172                       # mshr miss rate for ReadCleanReq accesses
system.l2.ReadCleanReq_mshr_miss_rate::total     0.186172                       # mshr miss rate for ReadCleanReq accesses
system.l2.ReadCleanReq_avg_mshr_miss_latency::.cpu.inst 76887.442573                       # average ReadCleanReq mshr miss latency
system.l2.ReadCleanReq_avg_mshr_miss_latency::total 76887.442573                       # average ReadCleanReq mshr miss latency
system.l2.ReadSharedReq_hits::.cpu.data        334025                       # number of ReadSharedReq hits
system.l2.ReadSharedReq_hits::total            334025                       # number of ReadSharedReq hits
system.l2.ReadSharedReq_misses::.cpu.data          538                       # number of ReadSharedReq misses
system.l2.ReadSharedReq_misses::total             538                       # number of ReadSharedReq misses
system.l2.ReadSharedReq_miss_latency::.cpu.data     54760000                       # number of ReadSharedReq miss cycles
system.l2.ReadSharedReq_miss_latency::total     54760000                       # number of ReadSharedReq miss cycles
system.l2.ReadSharedReq_accesses::.cpu.data       334563                       # number of ReadSharedReq accesses(hits+misses)
system.l2.ReadSharedReq_accesses::total        334563                       # number of ReadSharedReq accesses(hits+misses)
system.l2.ReadSharedReq_miss_rate::.cpu.data     0.001608                       # miss rate for ReadSharedReq accesses
system.l2.ReadSharedReq_miss_rate::total     0.001608                       # miss rate for ReadSharedReq accesses
system.l2.ReadSharedReq_avg_miss_latency::.cpu.data 101784.386617                       # average ReadSharedReq miss latency
system.l2.ReadSharedReq_avg_miss_latency::total 101784.386617                       # average ReadSharedReq miss latency
system.l2.ReadSharedReq_mshr_hits::.cpu.data            6                       # number of ReadSharedReq MSHR hits
system.l2.ReadSharedReq_mshr_hits::total            6                       # number of ReadSharedReq MSHR hits
system.l2.ReadSharedReq_mshr_misses::.cpu.data          532                       # number of ReadSharedReq MSHR misses
system.l2.ReadSharedReq_mshr_misses::total          532                       # number of ReadSharedReq MSHR misses
system.l2.ReadSharedReq_mshr_miss_latency::.cpu.data     43403000                       # number of ReadSharedReq MSHR miss cycles
system.l2.ReadSharedReq_mshr_miss_latency::total     43403000                       # number of ReadSharedReq MSHR miss cycles
system.l2.ReadSharedReq_mshr_miss_rate::.cpu.data     0.001590                       # mshr miss rate for ReadSharedReq accesses
system.l2.ReadSharedReq_mshr_miss_rate::total     0.001590                       # mshr miss rate for ReadSharedReq accesses
system.l2.ReadSharedReq_avg_mshr_miss_latency::.cpu.data 81584.586466                       # average ReadSharedReq mshr miss latency
system.l2.ReadSharedReq_avg_mshr_miss_latency::total 81584.586466                       # average ReadSharedReq mshr miss latency
system.l2.power_state.pwrStateResidencyTicks::UNDEFINED 129909166000                       # Cumulative time (in ticks) in various power states
system.l2.tags.tagsinuse                  5078.940194                       # Cycle average of tags in use
system.l2.tags.total_refs                      895379                       # Total number of references to valid blocks.
system.l2.tags.sampled_refs                      5530                       # Sample count of references to valid blocks.
system.l2.tags.avg_refs                    161.913020                       # Average number of references to valid blocks.
system.l2.tags.warmup_cycle                     87000                       # Cycle when the warmup percentage was hit.
system.l2.tags.occ_blocks::.writebacks      19.724755                       # Average occupied blocks per requestor
system.l2.tags.occ_blocks::.cpu.inst      1120.865327                       # Average occupied blocks per requestor
system.l2.tags.occ_blocks::.cpu.data      3938.350113                       # Average occupied blocks per requestor
system.l2.tags.occ_percent::.writebacks      0.002408                       # Average percentage of cache occupancy
system.l2.tags.occ_percent::.cpu.inst        0.136824                       # Average percentage of cache occupancy
system.l2.tags.occ_percent::.cpu.data        0.480756                       # Average percentage of cache occupancy
system.l2.tags.occ_percent::total            0.619988                       # Average percentage of cache occupancy
system.l2.tags.occ_task_id_blocks::1024          5267                       # Occupied blocks per task id
system.l2.tags.age_task_id_blocks_1024::4         5267                       # Occupied blocks per task id
system.l2.tags.occ_task_id_percent::1024     0.642944                       # Percentage of cache occupancy per task id
system.l2.tags.tag_accesses                   1796304                       # Number of tag accesses
system.l2.tags.data_accesses                  1796304                       # Number of data accesses
system.l2.tags.power_state.pwrStateResidencyTicks::UNDEFINED 129909166000                       # Cumulative time (in ticks) in various power states
system.mem_ctrls.avgPriority_.writebacks::samples        10.00                       # Average QoS priority value for accepted requests
system.mem_ctrls.avgPriority_.cpu.inst::samples      1306.00                       # Average QoS priority value for accepted requests
system.mem_ctrls.avgPriority_.cpu.data::samples      4191.00                       # Average QoS priority value for accepted requests
system.mem_ctrls.priorityMinLatency      0.000000018750                       # per QoS priority minimum request to response latency (s)
system.mem_ctrls.priorityMaxLatency      0.000000578500                       # per QoS priority maximum request to response latency (s)
system.mem_ctrls.numReadWriteTurnArounds            0                       # Number of turnarounds from READ to WRITE
system.mem_ctrls.numWriteReadTurnArounds            0                       # Number of turnarounds from WRITE to READ
system.mem_ctrls.numStayReadState               44366                       # Number of times bus staying in READ state
system.mem_ctrls.numStayWriteState                  0                       # Number of times bus staying in WRITE state
system.mem_ctrls.readReqs                        5504                       # Number of read requests accepted
system.mem_ctrls.writeReqs                         10                       # Number of write requests accepted
system.mem_ctrls.readBursts                      5504                       # Number of controller read bursts, including those serviced by the write queue
system.mem_ctrls.writeBursts                       10                       # Number of controller write bursts, including those merged in the write queue
system.mem_ctrls.servicedByWrQ                      7                       # Number of controller read bursts serviced by the write queue
system.mem_ctrls.mergedWrBursts                     0                       # Number of controller write bursts merged with an existing one
system.mem_ctrls.neitherReadNorWriteReqs            0                       # Number of requests that are neither read nor write
system.mem_ctrls.avgRdQLen                       1.00                       # Average read queue length when enqueuing
system.mem_ctrls.avgWrQLen                       9.54                       # Average write queue length when enqueuing
system.mem_ctrls.numRdRetry                         0                       # Number of times read queue was full causing retry
system.mem_ctrls.numWrRetry                         0                       # Number of times write queue was full causing retry
system.mem_ctrls.readPktSize::0                     0                       # Read request sizes (log2)
system.mem_ctrls.readPktSize::1                     0                       # Read request sizes (log2)
system.mem_ctrls.readPktSize::2                     0                       # Read request sizes (log2)
system.mem_ctrls.readPktSize::3                     0                       # Read request sizes (log2)
system.mem_ctrls.readPktSize::4                     0                       # Read request sizes (log2)
system.mem_ctrls.readPktSize::5                     0                       # Read request sizes (log2)
system.mem_ctrls.readPktSize::6                  5504                       # Read request sizes (log2)
[...]
system.mem_ctrls.dram.bw_write::.writebacks         4927                       # Write bandwidth from this memory (bytes/s)
system.mem_ctrls.dram.bw_write::total            4927                       # Write bandwidth from this memory (bytes/s)
system.mem_ctrls.dram.bw_total::.writebacks         4927                       # Total bandwidth to/from this memory (bytes/s)
system.mem_ctrls.dram.bw_total::.cpu.inst       643403                       # Total bandwidth to/from this memory (bytes/s)
system.mem_ctrls.dram.bw_total::.cpu.data      2068153                       # Total bandwidth to/from this memory (bytes/s)
system.mem_ctrls.dram.bw_total::total         2716483                       # Total bandwidth to/from this memory (bytes/s)
system.mem_ctrls.dram.readBursts                 5497                       # Number of DRAM read bursts
system.mem_ctrls.dram.writeBursts                   0                       # Number of DRAM write bursts
system.mem_ctrls.dram.perBankRdBursts::0          252                       # Per bank write bursts
system.mem_ctrls.dram.perBankRdBursts::1          273                       # Per bank write bursts
system.mem_ctrls.dram.perBankRdBursts::2          243                       # Per bank write bursts
system.mem_ctrls.dram.perBankRdBursts::3          403                       # Per bank write bursts
system.mem_ctrls.dram.perBankRdBursts::4          418                       # Per bank write bursts
system.mem_ctrls.dram.perBankRdBursts::5          373                       # Per bank write bursts
system.mem_ctrls.dram.perBankRdBursts::6          377                       # Per bank write bursts
system.mem_ctrls.dram.perBankRdBursts::7          401                       # Per bank write bursts
system.mem_ctrls.dram.perBankRdBursts::8          359                       # Per bank write bursts
system.mem_ctrls.dram.perBankRdBursts::9          295                       # Per bank write bursts
system.mem_ctrls.dram.perBankRdBursts::10          427                       # Per bank write bursts
system.mem_ctrls.dram.perBankRdBursts::11          288                       # Per bank write bursts
system.mem_ctrls.dram.perBankRdBursts::12          311                       # Per bank write bursts
system.mem_ctrls.dram.perBankRdBursts::13          339                       # Per bank write bursts
system.mem_ctrls.dram.perBankRdBursts::14          401                       # Per bank write bursts
system.mem_ctrls.dram.perBankRdBursts::15          337                       # Per bank write bursts
system.mem_ctrls.dram.perBankWrBursts::0            0                       # Per bank write bursts
system.mem_ctrls.dram.perBankWrBursts::1            0                       # Per bank write bursts
system.mem_ctrls.dram.perBankWrBursts::2            0                       # Per bank write bursts
system.mem_ctrls.dram.perBankWrBursts::3            0                       # Per bank write bursts
system.mem_ctrls.dram.perBankWrBursts::4            0                       # Per bank write bursts
system.mem_ctrls.dram.perBankWrBursts::5            0                       # Per bank write bursts
system.mem_ctrls.dram.perBankWrBursts::6            0                       # Per bank write bursts
system.mem_ctrls.dram.perBankWrBursts::7            0                       # Per bank write bursts
system.mem_ctrls.dram.perBankWrBursts::8            0                       # Per bank write bursts
system.mem_ctrls.dram.perBankWrBursts::9            0                       # Per bank write bursts
system.mem_ctrls.dram.perBankWrBursts::10            0                       # Per bank write bursts
system.mem_ctrls.dram.perBankWrBursts::11            0                       # Per bank write bursts
system.mem_ctrls.dram.perBankWrBursts::12            0                       # Per bank write bursts
system.mem_ctrls.dram.perBankWrBursts::13            0                       # Per bank write bursts
system.mem_ctrls.dram.perBankWrBursts::14            0                       # Per bank write bursts
system.mem_ctrls.dram.perBankWrBursts::15            0                       # Per bank write bursts
system.mem_ctrls.dram.totQLat                46692250                       # Total ticks spent queuing
system.mem_ctrls.dram.totBusLat              27485000                       # Total ticks spent in databus transfers
system.mem_ctrls.dram.totMemAccLat          149761000                       # Total ticks spent from burst creation until serviced by the DRAM
system.mem_ctrls.dram.avgQLat                 8494.13                       # Average queueing delay per DRAM burst
system.mem_ctrls.dram.avgBusLat               5000.00                       # Average bus latency per DRAM burst
system.mem_ctrls.dram.avgMemAccLat           27244.13                       # Average memory access latency per DRAM burst
system.mem_ctrls.dram.readRowHits                3889                       # Number of row buffer hits during reads
system.mem_ctrls.dram.writeRowHits                  0                       # Number of row buffer hits during writes
system.mem_ctrls.dram.readRowHitRate            70.75                       # Row buffer hit rate for reads
system.mem_ctrls.dram.writeRowHitRate             nan                       # Row buffer hit rate for writes
system.mem_ctrls.dram.bytesPerActivate::samples         1608                       # Bytes accessed per row activation
system.mem_ctrls.dram.bytesPerActivate::mean   218.786070                       # Bytes accessed per row activation
system.mem_ctrls.dram.bytesPerActivate::gmean   141.009497                       # Bytes accessed per row activation
system.mem_ctrls.dram.bytesPerActivate::stdev   258.355450                       # Bytes accessed per row activation
system.mem_ctrls.dram.bytesPerActivate::0-127          644     40.05%     40.05% # Bytes accessed per row activation
system.mem_ctrls.dram.bytesPerActivate::128-255          567     35.26%     75.31% # Bytes accessed per row activation
system.mem_ctrls.dram.bytesPerActivate::256-383          162     10.07%     85.39% # Bytes accessed per row activation
system.mem_ctrls.dram.bytesPerActivate::384-511           44      2.74%     88.12% # Bytes accessed per row activation
system.mem_ctrls.dram.bytesPerActivate::512-639           34      2.11%     90.24% # Bytes accessed per row activation
system.mem_ctrls.dram.bytesPerActivate::640-767           26      1.62%     91.85% # Bytes accessed per row activation
system.mem_ctrls.dram.bytesPerActivate::768-895           17      1.06%     92.91% # Bytes accessed per row activation
system.mem_ctrls.dram.bytesPerActivate::896-1023           14      0.87%     93.78% # Bytes accessed per row activation
system.mem_ctrls.dram.bytesPerActivate::1024-1151          100      6.22%    100.00% # Bytes accessed per row activation
system.mem_ctrls.dram.bytesPerActivate::total         1608                       # Bytes accessed per row activation
system.mem_ctrls.dram.bytesRead                351808                       # Total number of bytes read from DRAM
system.mem_ctrls.dram.bytesWritten                  0                       # Total number of bytes written to DRAM
system.mem_ctrls.dram.avgRdBW                2.708108                       # Average DRAM read bandwidth in MiBytes/s
system.mem_ctrls.dram.avgWrBW                       0                       # Average DRAM write bandwidth in MiBytes/s
system.mem_ctrls.dram.peakBW                 12800.00                       # Theoretical peak bandwidth in MiByte/s
system.mem_ctrls.dram.busUtil                    0.02                       # Data bus utilization in percentage
system.mem_ctrls.dram.busUtilRead                0.02                       # Data bus utilization in percentage for reads
system.mem_ctrls.dram.busUtilWrite               0.00                       # Data bus utilization in percentage for writes
system.mem_ctrls.dram.pageHitRate               70.75                       # Row buffer hit rate, read and write combined
system.mem_ctrls.dram.power_state.pwrStateResidencyTicks::UNDEFINED 129909166000                       # Cumulative time (in ticks) in various power states
system.mem_ctrls.dram.rank0.actEnergy         5954760                       # Energy for activate commands per rank (pJ)
system.mem_ctrls.dram.rank0.preEnergy         3165030                       # Energy for precharge commands per rank (pJ)
system.mem_ctrls.dram.rank0.readEnergy       19563600                       # Energy for read commands per rank (pJ)
system.mem_ctrls.dram.rank0.writeEnergy             0                       # Energy for write commands per rank (pJ)
system.mem_ctrls.dram.rank0.refreshEnergy 10254653760.000002                       # Energy for refresh commands per rank (pJ)
system.mem_ctrls.dram.rank0.actBackEnergy   3008389890                       # Energy for active background per rank (pJ)
system.mem_ctrls.dram.rank0.preBackEnergy  47351738880                       # Energy for precharge background per rank (pJ)
system.mem_ctrls.dram.rank0.actPowerDownEnergy            0                       # Energy for active power-down per rank (pJ)
system.mem_ctrls.dram.rank0.prePowerDownEnergy            0                       # Energy for precharge power-down per rank (pJ)
system.mem_ctrls.dram.rank0.selfRefreshEnergy            0                       # Energy for self refresh per rank (pJ)
system.mem_ctrls.dram.rank0.totalEnergy   60643465920                       # Total energy per rank (pJ)
system.mem_ctrls.dram.rank0.averagePower   466.814373                       # Core power per rank (mW)
system.mem_ctrls.dram.rank0.totalIdleTime            0                       # Total Idle time Per DRAM Rank
system.mem_ctrls.dram.rank0.pwrStateTime::IDLE 123075489250                       # Time in different power states
system.mem_ctrls.dram.rank0.pwrStateTime::REF   4337840000                       # Time in different power states
system.mem_ctrls.dram.rank0.pwrStateTime::SREF            0                       # Time in different power states
system.mem_ctrls.dram.rank0.pwrStateTime::PRE_PDN            0                       # Time in different power states
system.mem_ctrls.dram.rank0.pwrStateTime::ACT   2495836750                       # Time in different power states
system.mem_ctrls.dram.rank0.pwrStateTime::ACT_PDN            0                       # Time in different power states
system.mem_ctrls.dram.rank1.actEnergy         5526360                       # Energy for activate commands per rank (pJ)
system.mem_ctrls.dram.rank1.preEnergy         2937330                       # Energy for precharge commands per rank (pJ)
system.mem_ctrls.dram.rank1.readEnergy       19684980                       # Energy for read commands per rank (pJ)
system.mem_ctrls.dram.rank1.writeEnergy             0                       # Energy for write commands per rank (pJ)
system.mem_ctrls.dram.rank1.refreshEnergy 10254653760.000002                       # Energy for refresh commands per rank (pJ)
system.mem_ctrls.dram.rank1.actBackEnergy   2927112450                       # Energy for active background per rank (pJ)
system.mem_ctrls.dram.rank1.preBackEnergy  47420183040                       # Energy for precharge background per rank (pJ)
system.mem_ctrls.dram.rank1.actPowerDownEnergy            0                       # Energy for active power-down per rank (pJ)
system.mem_ctrls.dram.rank1.prePowerDownEnergy            0                       # Energy for precharge power-down per rank (pJ)
system.mem_ctrls.dram.rank1.selfRefreshEnergy            0                       # Energy for self refresh per rank (pJ)
system.mem_ctrls.dram.rank1.totalEnergy   60630097920                       # Total energy per rank (pJ)
system.mem_ctrls.dram.rank1.averagePower   466.711471                       # Core power per rank (mW)
system.mem_ctrls.dram.rank1.totalIdleTime            0                       # Total Idle time Per DRAM Rank
system.mem_ctrls.dram.rank1.pwrStateTime::IDLE 123254122000                       # Time in different power states
system.mem_ctrls.dram.rank1.pwrStateTime::REF   4337840000                       # Time in different power states
system.mem_ctrls.dram.rank1.pwrStateTime::SREF            0                       # Time in different power states
system.mem_ctrls.dram.rank1.pwrStateTime::PRE_PDN            0                       # Time in different power states
system.mem_ctrls.dram.rank1.pwrStateTime::ACT   2317204000                       # Time in different power states
system.mem_ctrls.dram.rank1.pwrStateTime::ACT_PDN            0                       # Time in different power states
system.mem_ctrls.power_state.pwrStateResidencyTicks::UNDEFINED 129909166000                       # Cumulative time (in ticks) in various power states
system.membus.trans_dist::ReadResp               1838                       # Transaction distribution
system.membus.trans_dist::WritebackDirty           10                       # Transaction distribution
system.membus.trans_dist::CleanEvict               95                       # Transaction distribution
system.membus.trans_dist::ReadExReq              3666                       # Transaction distribution
system.membus.trans_dist::ReadExResp             3666                       # Transaction distribution
system.membus.trans_dist::ReadSharedReq          1838                       # Transaction distribution
system.membus.pkt_count_system.l2.mem_side_port::system.mem_ctrls.port        11113                       # Packet count per connected requestor and responder (bytes)
system.membus.pkt_count::total                  11113                       # Packet count per connected requestor and responder (bytes)
system.membus.pkt_size_system.l2.mem_side_port::system.mem_ctrls.port       352896                       # Cumulative packet size per connected requestor and responder (bytes)
system.membus.pkt_size::total                  352896                       # Cumulative packet size per connected requestor and responder (bytes)
system.membus.snoops                                0                       # Total snoops (count)
system.membus.snoopTraffic                          0                       # Total snoop traffic (bytes)
system.membus.snoop_fanout::samples              5504                       # Request fanout histogram
system.membus.snoop_fanout::mean                    0                       # Request fanout histogram
system.membus.snoop_fanout::stdev                   0                       # Request fanout histogram
system.membus.snoop_fanout::underflows              0      0.00%      0.00% # Request fanout histogram
system.membus.snoop_fanout::0                    5504    100.00%    100.00% # Request fanout histogram
system.membus.snoop_fanout::1                       0      0.00%    100.00% # Request fanout histogram
system.membus.snoop_fanout::overflows               0      0.00%    100.00% # Request fanout histogram
system.membus.snoop_fanout::min_value               0                       # Request fanout histogram
system.membus.snoop_fanout::max_value               0                       # Request fanout histogram
system.membus.snoop_fanout::total                5504                       # Request fanout histogram
system.membus.power_state.pwrStateResidencyTicks::UNDEFINED 129909166000                       # Cumulative time (in ticks) in various power states
system.membus.reqLayer0.occupancy             5649000                       # Layer occupancy (ticks)
system.membus.reqLayer0.utilization               0.0                       # Layer utilization (%)
system.membus.respLayer1.occupancy           29277750                       # Layer occupancy (ticks)
system.membus.respLayer1.utilization              0.0                       # Layer utilization (%)
system.tol2bus.trans_dist::ReadResp            341578                       # Transaction distribution
system.tol2bus.trans_dist::WritebackDirty       436947                       # Transaction distribution
system.tol2bus.trans_dist::WritebackClean         6200                       # Transaction distribution
system.tol2bus.trans_dist::CleanEvict            5516                       # Transaction distribution
system.tol2bus.trans_dist::ReadExReq           107893                       # Transaction distribution
system.tol2bus.trans_dist::ReadExResp          107893                       # Transaction distribution
system.tol2bus.trans_dist::ReadCleanReq          7015                       # Transaction distribution
system.tol2bus.trans_dist::ReadSharedReq       334563                       # Transaction distribution
system.tol2bus.pkt_count_system.cpu.icache.mem_side_port::system.l2.cpu_side_port        20230                       # Packet count per connected requestor and responder (bytes)
system.tol2bus.pkt_count_system.cpu.dcache.mem_side_port::system.l2.cpu_side_port      1327112                       # Packet count per connected requestor and responder (bytes)
system.tol2bus.pkt_count::total               1347342                       # Packet count per connected requestor and responder (bytes)
system.tol2bus.pkt_size_system.cpu.icache.mem_side_port::system.l2.cpu_side_port       845760                       # Cumulative packet size per connected requestor and responder (bytes)
system.tol2bus.pkt_size_system.cpu.dcache.mem_side_port::system.l2.cpu_side_port     56281152                       # Cumulative packet size per connected requestor and responder (bytes)
system.tol2bus.pkt_size::total               57126912                       # Cumulative packet size per connected requestor and responder (bytes)
system.tol2bus.snoops                             263                       # Total snoops (count)
system.tol2bus.snoopTraffic                       640                       # Total snoop traffic (bytes)
system.tol2bus.snoop_fanout::samples           449734                       # Request fanout histogram
system.tol2bus.snoop_fanout::mean            0.005879                       # Request fanout histogram
system.tol2bus.snoop_fanout::stdev           0.076449                       # Request fanout histogram
system.tol2bus.snoop_fanout::underflows             0      0.00%      0.00% # Request fanout histogram
system.tol2bus.snoop_fanout::0                 447090     99.41%     99.41% # Request fanout histogram
system.tol2bus.snoop_fanout::1                   2644      0.59%    100.00% # Request fanout histogram
system.tol2bus.snoop_fanout::2                      0      0.00%    100.00% # Request fanout histogram
system.tol2bus.snoop_fanout::overflows              0      0.00%    100.00% # Request fanout histogram
system.tol2bus.snoop_fanout::min_value              0                       # Request fanout histogram
system.tol2bus.snoop_fanout::max_value              1                       # Request fanout histogram
system.tol2bus.snoop_fanout::total             449734                       # Request fanout histogram
system.tol2bus.power_state.pwrStateResidencyTicks::UNDEFINED 129909166000                       # Cumulative time (in ticks) in various power states
system.tol2bus.reqLayer0.occupancy         1784145000                       # Layer occupancy (ticks)
system.tol2bus.reqLayer0.utilization              1.4                       # Layer utilization (%)
system.tol2bus.respLayer0.occupancy          21053991                       # Layer occupancy (ticks)
system.tol2bus.respLayer0.utilization             0.0                       # Layer utilization (%)
system.tol2bus.respLayer1.occupancy        1327373994                       # Layer occupancy (ticks)
system.tol2bus.respLayer1.utilization             1.0                       # Layer utilization (%)
system.voltage_domain.voltage                       1                       # Voltage in Volts

---------- End Simulation Statistics   ----------
