
---------- Begin Simulation Statistics ----------
final_tick                                  399326000                       # Number of ticks from beginning of simulation (restored from checkpoints and never reset)
host_inst_rate                                 318360                       # Simulator instruction rate (inst/s)
host_mem_usage                                 655940                       # Number of bytes of host memory used
host_op_rate                                   378542                       # Simulator op (including micro ops) rate (op/s)
host_seconds                                     1.33                       # Real time elapsed on the host
host_tick_rate                              301176778                       # Simulator tick rate (ticks/s)
sim_freq                                 1000000000000                       # Frequency of simulated ticks
sim_insts                                      422085                       # Number of instructions simulated
sim_ops                                        501899                       # Number of ops (including micro ops) simulated
sim_seconds                                  0.000399                       # Number of seconds simulated
sim_ticks                                   399326000                       # Number of ticks simulated
system.cpu.committedInsts                      422085                       # Number of instructions committed
system.cpu.committedOps                        501899                       # Number of ops (including micro ops) committed
system.cpu.cpi                               1.892159                       # CPI: cycles per instruction
system.cpu.discardedOps                         14064                       # Number of ops (including micro ops) which were discarded before commit
system.cpu.idleCycles                          220445                       # Total number of cycles that the object has spent stopped
system.cpu.ipc                               0.528497                       # IPC: instructions per cycle
system.cpu.numCycles                           798652                       # number of cpu cycles simulated
system.cpu.numFetchSuspends                         0                       # Number of times Execute suspended instruction fetching
system.cpu.numWorkItemsCompleted                    0                       # number of work items this cpu completed
system.cpu.numWorkItemsStarted                      0                       # number of work items this cpu started
system.cpu.op_class_0::No_OpClass                   0      0.00%      0.00% # Class of committed instruction
system.cpu.op_class_0::IntAlu                  343364     68.41%     68.41% # Class of committed instruction
system.cpu.op_class_0::IntMult                   3435      0.68%     69.10% # Class of committed instruction
system.cpu.op_class_0::IntDiv                       0      0.00%     69.10% # Class of committed instruction
system.cpu.op_class_0::FloatAdd                     0      0.00%     69.10% # Class of committed instruction
system.cpu.op_class_0::FloatCmp                     0      0.00%     69.10% # Class of committed instruction
system.cpu.op_class_0::FloatCvt                     0      0.00%     69.10% # Class of committed instruction
system.cpu.op_class_0::FloatMult                    0      0.00%     69.10% # Class of committed instruction
system.cpu.op_class_0::FloatMultAcc                 0      0.00%     69.10% # Class of committed instruction
system.cpu.op_class_0::FloatDiv                     0      0.00%     69.10% # Class of committed instruction
system.cpu.op_class_0::FloatMisc                    0      0.00%     69.10% # Class of committed instruction
system.cpu.op_class_0::FloatSqrt                    0      0.00%     69.10% # Class of committed instruction
system.cpu.op_class_0::SimdAdd                      0      0.00%     69.10% # Class of committed instruction
system.cpu.op_class_0::SimdAddAcc                   0      0.00%     69.10% # Class of committed instruction
system.cpu.op_class_0::SimdAlu                      0      0.00%     69.10% # Class of committed instruction
system.cpu.op_class_0::SimdCmp                      0      0.00%     69.10% # Class of committed instruction
system.cpu.op_class_0::SimdCvt                      0      0.00%     69.10% # Class of committed instruction
system.cpu.op_class_0::SimdMisc                     0      0.00%     69.10% # Class of committed instruction
system.cpu.op_class_0::SimdMult                     0      0.00%     69.10% # Class of committed instruction
system.cpu.op_class_0::SimdMultAcc                  0      0.00%     69.10% # Class of committed instruction
system.cpu.op_class_0::SimdShift                    0      0.00%     69.10% # Class of committed instruction
system.cpu.op_class_0::SimdShiftAcc                 0      0.00%     69.10% # Class of committed instruction
system.cpu.op_class_0::SimdDiv                      0      0.00%     69.10% # Class of committed instruction
system.cpu.op_class_0::SimdSqrt                     0      0.00%     69.10% # Class of committed instruction
system.cpu.op_class_0::SimdFloatAdd                 0      0.00%     69.10% # Class of committed instruction
system.cpu.op_class_0::SimdFloatAlu                 0      0.00%     69.10% # Class of committed instruction
system.cpu.op_class_0::SimdFloatCmp                 0      0.00%     69.10% # Class of committed instruction
system.cpu.op_class_0::SimdFloatCvt                 0      0.00%     69.10% # Class of committed instruction
system.cpu.op_class_0::SimdFloatDiv                 0      0.00%     69.10% # Class of committed instruction
system.cpu.op_class_0::SimdFloatMisc               21      0.00%     69.10% # Class of committed instruction
system.cpu.op_class_0::SimdFloatMult                0      0.00%     69.10% # Class of committed instruction
system.cpu.op_class_0::SimdFloatMultAcc             0      0.00%     69.10% # Class of committed instruction
system.cpu.op_class_0::SimdFloatSqrt                0      0.00%     69.10% # Class of committed instruction
system.cpu.op_class_0::SimdReduceAdd                0      0.00%     69.10% # Class of committed instruction
system.cpu.op_class_0::SimdReduceAlu                0      0.00%     69.10% # Class of committed instruction
system.cpu.op_class_0::SimdReduceCmp                0      0.00%     69.10% # Class of committed instruction
system.cpu.op_class_0::SimdFloatReduceAdd            0      0.00%     69.10% # Class of committed instruction
system.cpu.op_class_0::SimdFloatReduceCmp            0      0.00%     69.10% # Class of committed instruction
system.cpu.op_class_0::SimdAes                      0      0.00%     69.10% # Class of committed instruction
system.cpu.op_class_0::SimdAesMix                   0      0.00%     69.10% # Class of committed instruction
system.cpu.op_class_0::SimdSha1Hash                 0      0.00%     69.10% # Class of committed instruction
system.cpu.op_class_0::SimdSha1Hash2                0      0.00%     69.10% # Class of committed instruction
system.cpu.op_class_0::SimdSha256Hash               0      0.00%     69.10% # Class of committed instruction
system.cpu.op_class_0::SimdSha256Hash2              0      0.00%     69.10% # Class of committed instruction
system.cpu.op_class_0::SimdShaSigma2                0      0.00%     69.10% # Class of committed instruction
system.cpu.op_class_0::SimdShaSigma3                0      0.00%     69.10% # Class of committed instruction
system.cpu.op_class_0::SimdPredAlu                  0      0.00%     69.10% # Class of committed instruction
system.cpu.op_class_0::MemRead                  82981     16.53%     85.63% # Class of committed instruction
system.cpu.op_class_0::MemWrite                 72098     14.37%    100.00% # Class of committed instruction
system.cpu.op_class_0::FloatMemRead                 0      0.00%    100.00% # Class of committed instruction
system.cpu.op_class_0::FloatMemWrite                0      0.00%    100.00% # Class of committed instruction
system.cpu.op_class_0::IprAccess                    0      0.00%    100.00% # Class of committed instruction
system.cpu.op_class_0::InstPrefetch                 0      0.00%    100.00% # Class of committed instruction
system.cpu.op_class_0::total                   501899                       # Class of committed instruction
system.cpu.tickCycles                          578207                       # Number of cycles that the object actually ticked
system.cpu.workload.numSyscalls                   510                       # Number of system calls
system.membus.snoop_filter.hit_multi_requests            6                       # Number of requests hitting in the snoop filter with multiple (>1) holders of the requested data.
system.membus.snoop_filter.hit_multi_snoops            0                       # Number of snoops hitting in the snoop filter with multiple (>1) holders of the requested data.
system.membus.snoop_filter.hit_single_requests         4621                       # Number of requests hitting in the snoop filter with a single holder of the requested data.
system.membus.snoop_filter.hit_single_snoops            0                       # Number of snoops hitting in the snoop filter with a single holder of the requested data.
system.membus.snoop_filter.tot_requests          9702                       # Total number of requests made to the snoop filter.
system.membus.snoop_filter.tot_snoops               0                       # Total number of snoops made to the snoop filter.
system.clk_domain.clock                          1000                       # Clock period in ticks
system.cpu.branchPred.lookups                   97877                       # Number of BP lookups
system.cpu.branchPred.condPredicted             64640                       # Number of conditional branches predicted
system.cpu.branchPred.condIncorrect              5127                       # Number of conditional branches incorrect
system.cpu.branchPred.BTBLookups                42010                       # Number of BTB lookups
system.cpu.branchPred.BTBHits                   38042                       # Number of BTB hits
system.cpu.branchPred.BTBHitPct             90.554630                       # BTB Hit Percentage
system.cpu.branchPred.RASUsed                   11302                       # Number of times the RAS was used to get a target.
system.cpu.branchPred.RASIncorrect                  2                       # Number of incorrect RAS predictions.
system.cpu.branchPred.indirectLookups            6678                       # Number of indirect predictor lookups.
system.cpu.branchPred.indirectHits               4533                       # Number of indirect target hits.
system.cpu.branchPred.indirectMisses             2145                       # Number of indirect misses.
system.cpu.branchPred.indirectMispredicted          573                       # Number of mispredicted indirect branches.
system.cpu.dcache.demand_hits::.cpu.data       150448                       # number of demand (read+write) hits
system.cpu.dcache.demand_hits::total           150448                       # number of demand (read+write) hits
system.cpu.dcache.overall_hits::.cpu.data       150471                       # number of overall hits
system.cpu.dcache.overall_hits::total          150471                       # number of overall hits
system.cpu.dcache.demand_misses::.cpu.data          221                       # number of demand (read+write) misses
system.cpu.dcache.demand_misses::total            221                       # number of demand (read+write) misses
system.cpu.dcache.overall_misses::.cpu.data          231                       # number of overall misses
system.cpu.dcache.overall_misses::total           231                       # number of overall misses
system.cpu.dcache.demand_miss_latency::.cpu.data     13498500                       # number of demand (read+write) miss cycles
system.cpu.dcache.demand_miss_latency::total     13498500                       # number of demand (read+write) miss cycles
system.cpu.dcache.overall_miss_latency::.cpu.data     13498500                       # number of overall miss cycles
system.cpu.dcache.overall_miss_latency::total     13498500                       # number of overall miss cycles
system.cpu.dcache.demand_accesses::.cpu.data       150669                       # number of demand (read+write) accesses
system.cpu.dcache.demand_accesses::total       150669                       # number of demand (read+write) accesses
system.cpu.dcache.overall_accesses::.cpu.data       150702                       # number of overall (read+write) accesses
system.cpu.dcache.overall_accesses::total       150702                       # number of overall (read+write) accesses
system.cpu.dcache.demand_miss_rate::.cpu.data     0.001467                       # miss rate for demand accesses
system.cpu.dcache.demand_miss_rate::total     0.001467                       # miss rate for demand accesses
system.cpu.dcache.overall_miss_rate::.cpu.data     0.001533                       # miss rate for overall accesses
system.cpu.dcache.overall_miss_rate::total     0.001533                       # miss rate for overall accesses
system.cpu.dcache.demand_avg_miss_latency::.cpu.data 61079.185520                       # average overall miss latency
system.cpu.dcache.demand_avg_miss_latency::total 61079.185520                       # average overall miss latency
system.cpu.dcache.overall_avg_miss_latency::.cpu.data 58435.064935                       # average overall miss latency
system.cpu.dcache.overall_avg_miss_latency::total 58435.064935                       # average overall miss latency
system.cpu.dcache.blocked_cycles::no_mshrs            0                       # number of cycles access was blocked
system.cpu.dcache.blocked_cycles::no_targets            0                       # number of cycles access was blocked
system.cpu.dcache.blocked::no_mshrs                 0                       # number of cycles access was blocked
system.cpu.dcache.blocked::no_targets               0                       # number of cycles access was blocked
system.cpu.dcache.avg_blocked_cycles::no_mshrs          nan                       # average number of cycles each access was blocked
system.cpu.dcache.avg_blocked_cycles::no_targets          nan                       # average number of cycles each access was blocked
system.cpu.dcache.demand_mshr_hits::.cpu.data           54                       # number of demand (read+write) MSHR hits
system.cpu.dcache.demand_mshr_hits::total           54                       # number of demand (read+write) MSHR hits
system.cpu.dcache.overall_mshr_hits::.cpu.data           54                       # number of overall MSHR hits
system.cpu.dcache.overall_mshr_hits::total           54                       # number of overall MSHR hits
system.cpu.dcache.demand_mshr_misses::.cpu.data          167                       # number of demand (read+write) MSHR misses
system.cpu.dcache.demand_mshr_misses::total          167                       # number of demand (read+write) MSHR misses
system.cpu.dcache.overall_mshr_misses::.cpu.data          175                       # number of overall MSHR misses
system.cpu.dcache.overall_mshr_misses::total          175                       # number of overall MSHR misses
system.cpu.dcache.demand_mshr_miss_latency::.cpu.data      9935000                       # number of demand (read+write) MSHR miss cycles
system.cpu.dcache.demand_mshr_miss_latency::total      9935000                       # number of demand (read+write) MSHR miss cycles
system.cpu.dcache.overall_mshr_miss_latency::.cpu.data     10947500                       # number of overall MSHR miss cycles
system.cpu.dcache.overall_mshr_miss_latency::total     10947500                       # number of overall MSHR miss cycles
system.cpu.dcache.demand_mshr_miss_rate::.cpu.data     0.001108                       # mshr miss rate for demand accesses
system.cpu.dcache.demand_mshr_miss_rate::total     0.001108                       # mshr miss rate for demand accesses
system.cpu.dcache.overall_mshr_miss_rate::.cpu.data     0.001161                       # mshr miss rate for overall accesses
system.cpu.dcache.overall_mshr_miss_rate::total     0.001161                       # mshr miss rate for overall accesses
system.cpu.dcache.demand_avg_mshr_miss_latency::.cpu.data 59491.017964                       # average overall mshr miss latency
system.cpu.dcache.demand_avg_mshr_miss_latency::total 59491.017964                       # average overall mshr miss latency
system.cpu.dcache.overall_avg_mshr_miss_latency::.cpu.data 62557.142857                       # average overall mshr miss latency
system.cpu.dcache.overall_avg_mshr_miss_latency::total 62557.142857                       # average overall mshr miss latency
system.cpu.dcache.replacements                      0                       # number of replacements
system.cpu.dcache.ReadReq_hits::.cpu.data        81568                       # number of ReadReq hits
system.cpu.dcache.ReadReq_hits::total           81568                       # number of ReadReq hits
system.cpu.dcache.ReadReq_misses::.cpu.data          106                       # number of ReadReq misses
system.cpu.dcache.ReadReq_misses::total           106                       # number of ReadReq misses
system.cpu.dcache.ReadReq_miss_latency::.cpu.data      6846500                       # number of ReadReq miss cycles
system.cpu.dcache.ReadReq_miss_latency::total      6846500                       # number of ReadReq miss cycles
system.cpu.dcache.ReadReq_accesses::.cpu.data        81674                       # number of ReadReq accesses(hits+misses)
system.cpu.dcache.ReadReq_accesses::total        81674                       # number of ReadReq accesses(hits+misses)
system.cpu.dcache.ReadReq_miss_rate::.cpu.data     0.001298                       # miss rate for ReadReq accesses
system.cpu.dcache.ReadReq_miss_rate::total     0.001298                       # miss rate for ReadReq accesses
system.cpu.dcache.ReadReq_avg_miss_latency::.cpu.data 64589.622642                       # average ReadReq miss latency
system.cpu.dcache.ReadReq_avg_miss_latency::total 64589.622642                       # average ReadReq miss latency
system.cpu.dcache.ReadReq_mshr_hits::.cpu.data            6                       # number of ReadReq MSHR hits
system.cpu.dcache.ReadReq_mshr_hits::total            6                       # number of ReadReq MSHR hits
system.cpu.dcache.ReadReq_mshr_misses::.cpu.data          100                       # number of ReadReq MSHR misses
system.cpu.dcache.ReadReq_mshr_misses::total          100                       # number of ReadReq MSHR misses
system.cpu.dcache.ReadReq_mshr_miss_latency::.cpu.data      6094500                       # number of ReadReq MSHR miss cycles
system.cpu.dcache.ReadReq_mshr_miss_latency::total      6094500                       # number of ReadReq MSHR miss cycles
system.cpu.dcache.ReadReq_mshr_miss_rate::.cpu.data     0.001224                       # mshr miss rate for ReadReq accesses
system.cpu.dcache.ReadReq_mshr_miss_rate::total     0.001224                       # mshr miss rate for ReadReq accesses
system.cpu.dcache.ReadReq_avg_mshr_miss_latency::.cpu.data        60945                       # average ReadReq mshr miss latency
system.cpu.dcache.ReadReq_avg_mshr_miss_latency::total        60945                       # average ReadReq mshr miss latency
system.cpu.dcache.WriteReq_hits::.cpu.data        68880                       # number of WriteReq hits
system.cpu.dcache.WriteReq_hits::total          68880                       # number of WriteReq hits
system.cpu.dcache.WriteReq_misses::.cpu.data          115                       # number of WriteReq misses
system.cpu.dcache.WriteReq_misses::total          115                       # number of WriteReq misses
system.cpu.dcache.WriteReq_miss_latency::.cpu.data      6652000                       # number of WriteReq miss cycles
system.cpu.dcache.WriteReq_miss_latency::total      6652000                       # number of WriteReq miss cycles
system.cpu.dcache.WriteReq_accesses::.cpu.data        68995                       # number of WriteReq accesses(hits+misses)
system.cpu.dcache.WriteReq_accesses::total        68995                       # number of WriteReq accesses(hits+misses)
system.cpu.dcache.WriteReq_miss_rate::.cpu.data     0.001667                       # miss rate for WriteReq accesses
system.cpu.dcache.WriteReq_miss_rate::total     0.001667                       # miss rate for WriteReq accesses
system.cpu.dcache.WriteReq_avg_miss_latency::.cpu.data 57843.478261                       # average WriteReq miss latency
system.cpu.dcache.WriteReq_avg_miss_latency::total 57843.478261                       # average WriteReq miss latency
system.cpu.dcache.WriteReq_mshr_hits::.cpu.data           48                       # number of WriteReq MSHR hits
system.cpu.dcache.WriteReq_mshr_hits::total           48                       # number of WriteReq MSHR hits
system.cpu.dcache.WriteReq_mshr_misses::.cpu.data           67                       # number of WriteReq MSHR misses
system.cpu.dcache.WriteReq_mshr_misses::total           67                       # number of WriteReq MSHR misses
system.cpu.dcache.WriteReq_mshr_miss_latency::.cpu.data      3840500                       # number of WriteReq MSHR miss cycles
system.cpu.dcache.WriteReq_mshr_miss_latency::total      3840500                       # number of WriteReq MSHR miss cycles
system.cpu.dcache.WriteReq_mshr_miss_rate::.cpu.data     0.000971                       # mshr miss rate for WriteReq accesses
system.cpu.dcache.WriteReq_mshr_miss_rate::total     0.000971                       # mshr miss rate for WriteReq accesses
system.cpu.dcache.WriteReq_avg_mshr_miss_latency::.cpu.data 57320.895522                       # average WriteReq mshr miss latency
system.cpu.dcache.WriteReq_avg_mshr_miss_latency::total 57320.895522                       # average WriteReq mshr miss latency
system.cpu.dcache.SoftPFReq_hits::.cpu.data           23                       # number of SoftPFReq hits
system.cpu.dcache.SoftPFReq_hits::total            23                       # number of SoftPFReq hits
system.cpu.dcache.SoftPFReq_misses::.cpu.data           10                       # number of SoftPFReq misses
system.cpu.dcache.SoftPFReq_misses::total           10                       # number of SoftPFReq misses
system.cpu.dcache.SoftPFReq_accesses::.cpu.data           33                       # number of SoftPFReq accesses(hits+misses)
system.cpu.dcache.SoftPFReq_accesses::total           33                       # number of SoftPFReq accesses(hits+misses)
system.cpu.dcache.SoftPFReq_miss_rate::.cpu.data     0.303030                       # miss rate for SoftPFReq accesses
system.cpu.dcache.SoftPFReq_miss_rate::total     0.303030                       # miss rate for SoftPFReq accesses
system.cpu.dcache.SoftPFReq_mshr_misses::.cpu.data            8                       # number of SoftPFReq MSHR misses
system.cpu.dcache.SoftPFReq_mshr_misses::total            8                       # number of SoftPFReq MSHR misses
system.cpu.dcache.SoftPFReq_mshr_miss_latency::.cpu.data      1012500                       # number of SoftPFReq MSHR miss cycles
system.cpu.dcache.SoftPFReq_mshr_miss_latency::total      1012500                       # number of SoftPFReq MSHR miss cycles
system.cpu.dcache.SoftPFReq_mshr_miss_rate::.cpu.data     0.242424                       # mshr miss rate for SoftPFReq accesses
system.cpu.dcache.SoftPFReq_mshr_miss_rate::total     0.242424                       # mshr miss rate for SoftPFReq accesses
system.cpu.dcache.SoftPFReq_avg_mshr_miss_latency::.cpu.data 126562.500000                       # average SoftPFReq mshr miss latency
system.cpu.dcache.SoftPFReq_avg_mshr_miss_latency::total 126562.500000                       # average SoftPFReq mshr miss latency
system.cpu.dcache.LoadLockedReq_hits::.cpu.data         1018                       # number of LoadLockedReq hits
system.cpu.dcache.LoadLockedReq_hits::total         1018                       # number of LoadLockedReq hits
system.cpu.dcache.LoadLockedReq_accesses::.cpu.data         1018                       # number of LoadLockedReq accesses(hits+misses)
system.cpu.dcache.LoadLockedReq_accesses::total         1018                       # number of LoadLockedReq accesses(hits+misses)
system.cpu.dcache.StoreCondReq_hits::.cpu.data         1018                       # number of StoreCondReq hits
system.cpu.dcache.StoreCondReq_hits::total         1018                       # number of StoreCondReq hits
system.cpu.dcache.StoreCondReq_accesses::.cpu.data         1018                       # number of StoreCondReq accesses(hits+misses)
system.cpu.dcache.StoreCondReq_accesses::total         1018                       # number of StoreCondReq accesses(hits+misses)
system.cpu.dcache.power_state.pwrStateResidencyTicks::UNDEFINED    399326000                       # Cumulative time (in ticks) in various power states
system.cpu.dcache.tags.tagsinuse           154.678018                       # Cycle average of tags in use
system.cpu.dcache.tags.total_refs              152682                       # Total number of references to valid blocks.
system.cpu.dcache.tags.sampled_refs               175                       # Sample count of references to valid blocks.
system.cpu.dcache.tags.avg_refs            872.468571                       # Average number of references to valid blocks.
system.cpu.dcache.tags.warmup_cycle            145000                       # Cycle when the warmup percentage was hit.
system.cpu.dcache.tags.occ_blocks::.cpu.data   154.678018                       # Average occupied blocks per requestor
system.cpu.dcache.tags.occ_percent::.cpu.data     0.151053                       # Average percentage of cache occupancy
system.cpu.dcache.tags.occ_percent::total     0.151053                       # Average percentage of cache occupancy
system.cpu.dcache.tags.occ_task_id_blocks::1024          175                       # Occupied blocks per task id
system.cpu.dcache.tags.age_task_id_blocks_1024::0           15                       # Occupied blocks per task id
system.cpu.dcache.tags.age_task_id_blocks_1024::2          160                       # Occupied blocks per task id
system.cpu.dcache.tags.occ_task_id_percent::1024     0.170898                       # Percentage of cache occupancy per task id
system.cpu.dcache.tags.tag_accesses            305651                       # Number of tag accesses
system.cpu.dcache.tags.data_accesses           305651                       # Number of data accesses
system.cpu.dcache.tags.power_state.pwrStateResidencyTicks::UNDEFINED    399326000                       # Cumulative time (in ticks) in various power states
system.cpu.dtb.instHits                             0                       # ITB inst hits
system.cpu.dtb.instMisses                           0                       # ITB inst misses
system.cpu.dtb.readHits                             0                       # DTB read hits
system.cpu.dtb.readMisses                           0                       # DTB read misses
system.cpu.dtb.writeHits                            0                       # DTB write hits
system.cpu.dtb.writeMisses                          0                       # DTB write misses
system.cpu.dtb.inserts                              0                       # Number of times an entry is inserted into the TLB
system.cpu.dtb.flushTlb                             0                       # Number of times complete TLB was flushed
system.cpu.dtb.flushTlbMva                          0                       # Number of times TLB was flushed by MVA
system.cpu.dtb.flushTlbMvaAsid                      0                       # Number of times TLB was flushed by MVA & ASID
system.cpu.dtb.flushTlbAsid                         0                       # Number of times TLB was flushed by ASID
system.cpu.dtb.flushedEntries                       0                       # Number of entries that have been flushed from TLB
system.cpu.dtb.alignFaults                          0                       # Number of TLB faults due to alignment restrictions
system.cpu.dtb.prefetchFaults                       0                       # Number of TLB faults due to prefetch
system.cpu.dtb.domainFaults                         0                       # Number of TLB faults due to domain restrictions
system.cpu.dtb.permsFaults                          0                       # Number of TLB faults due to permissions restrictions
system.cpu.dtb.readAccesses                         0                       # DTB read accesses
system.cpu.dtb.writeAccesses                        0                       # DTB write accesses
system.cpu.dtb.instAccesses                         0                       # ITB inst accesses
system.cpu.dtb.hits                                 0                       # Total TLB (inst and data) hits
system.cpu.dtb.misses                               0                       # Total TLB (inst and data) misses
system.cpu.dtb.accesses                             0                       # Total TLB (inst and data) accesses
system.cpu.dtb.stage2_mmu.stage2_tlb.instHits            0                       # ITB inst hits
system.cpu.dtb.stage2_mmu.stage2_tlb.instMisses            0                       # ITB inst misses
system.cpu.dtb.stage2_mmu.stage2_tlb.readHits            0                       # DTB read hits
system.cpu.dtb.stage2_mmu.stage2_tlb.readMisses            0                       # DTB read misses
system.cpu.dtb.stage2_mmu.stage2_tlb.writeHits            0                       # DTB write hits
system.cpu.dtb.stage2_mmu.stage2_tlb.writeMisses            0                       # DTB write misses
system.cpu.dtb.stage2_mmu.stage2_tlb.inserts            0                       # Number of times an entry is inserted into the TLB
system.cpu.dtb.stage2_mmu.stage2_tlb.flushTlb            0                       # Number of times complete TLB was flushed
system.cpu.dtb.stage2_mmu.stage2_tlb.flushTlbMva            0                       # Number of times TLB was flushed by MVA
system.cpu.dtb.stage2_mmu.stage2_tlb.flushTlbMvaAsid            0                       # Number of times TLB was flushed by MVA & ASID
system.cpu.dtb.stage2_mmu.stage2_tlb.flushTlbAsid            0                       # Number of times TLB was flushed by ASID
system.cpu.dtb.stage2_mmu.stage2_tlb.flushedEntries            0                       # Number of entries that have been flushed from TLB
system.cpu.dtb.stage2_mmu.stage2_tlb.alignFaults            0                       # Number of TLB faults due to alignment restrictions
system.cpu.dtb.stage2_mmu.stage2_tlb.prefetchFaults            0                       # Number of TLB faults due to prefetch
system.cpu.dtb.stage2_mmu.stage2_tlb.domainFaults            0                       # Number of TLB faults due to domain restrictions
system.cpu.dtb.stage2_mmu.stage2_tlb.permsFaults            0                       # Number of TLB faults due to permissions restrictions
system.cpu.dtb.stage2_mmu.stage2_tlb.readAccesses            0                       # DTB read accesses
system.cpu.dtb.stage2_mmu.stage2_tlb.writeAccesses            0                       # DTB write accesses
system.cpu.dtb.stage2_mmu.stage2_tlb.instAccesses            0                       # ITB inst accesses
system.cpu.dtb.stage2_mmu.stage2_tlb.hits            0                       # Total TLB (inst and data) hits
system.cpu.dtb.stage2_mmu.stage2_tlb.misses            0                       # Total TLB (inst and data) misses
system.cpu.dtb.stage2_mmu.stage2_tlb.accesses            0                       # Total TLB (inst and data) accesses
system.cpu.dtb.stage2_mmu.stage2_tlb.walker.walks            0                       # Table walker walks requested
system.cpu.dtb.stage2_mmu.stage2_tlb.walker.requestOrigin_Requested::Data            0                       # Table walker requests started/completed, data/inst
system.cpu.dtb.stage2_mmu.stage2_tlb.walker.requestOrigin_Requested::Inst            0                       # Table walker requests started/completed, data/inst
system.cpu.dtb.stage2_mmu.stage2_tlb.walker.requestOrigin_Requested::total            0                       # Table walker requests started/completed, data/inst
system.cpu.dtb.stage2_mmu.stage2_tlb.walker.requestOrigin_Completed::Data            0                       # Table walker requests started/completed, data/inst
system.cpu.dtb.stage2_mmu.stage2_tlb.walker.requestOrigin_Completed::Inst            0                       # Table walker requests started/completed, data/inst
system.cpu.dtb.stage2_mmu.stage2_tlb.walker.requestOrigin_Completed::total            0                       # Table walker requests started/completed, data/inst
system.cpu.dtb.stage2_mmu.stage2_tlb.walker.requestOrigin::total            0                       # Table walker requests started/completed, data/inst
system.cpu.dtb.stage2_mmu.stage2_tlb.walker.power_state.pwrStateResidencyTicks::UNDEFINED    399326000                       # Cumulative time (in ticks) in various power states
system.cpu.dtb.walker.walks                         0                       # Table walker walks requested
system.cpu.dtb.walker.requestOrigin_Requested::Data            0                       # Table walker requests started/completed, data/inst
system.cpu.dtb.walker.requestOrigin_Requested::Inst            0                       # Table walker requests started/completed, data/inst
system.cpu.dtb.walker.requestOrigin_Requested::total            0                       # Table walker requests started/completed, data/inst
system.cpu.dtb.walker.requestOrigin_Completed::Data            0                       # Table walker requests started/completed, data/inst
system.cpu.dtb.walker.requestOrigin_Completed::Inst            0                       # Table walker requests started/completed, data/inst
system.cpu.dtb.walker.requestOrigin_Completed::total            0                       # Table walker requests started/completed, data/inst
system.cpu.dtb.walker.requestOrigin::total            0                       # Table walker requests started/completed, data/inst
system.cpu.dtb.walker.power_state.pwrStateResidencyTicks::UNDEFINED    399326000                       # Cumulative time (in ticks) in various power states
system.cpu.fetch2.intInstructions              263533                       # Number of integer instructions successfully decoded
system.cpu.fetch2.fpInstructions                    0                       # Number of floating point instructions successfully decoded
system.cpu.fetch2.vecInstructions                   0                       # Number of SIMD instructions successfully decoded
system.cpu.fetch2.loadInstructions              56278                       # Number of memory load instructions successfully decoded
system.cpu.fetch2.storeInstructions             29365                       # Number of memory store instructions successfully decoded
system.cpu.fetch2.amoInstructions                   0                       # Number of memory atomic instructions successfully decoded
system.cpu.icache.demand_hits::.cpu.inst       146761                       # number of demand (read+write) hits
system.cpu.icache.demand_hits::total           146761                       # number of demand (read+write) hits
system.cpu.icache.overall_hits::.cpu.inst       146761                       # number of overall hits
system.cpu.icache.overall_hits::total          146761                       # number of overall hits
system.cpu.icache.demand_misses::.cpu.inst         4926                       # number of demand (read+write) misses
system.cpu.icache.demand_misses::total           4926                       # number of demand (read+write) misses
system.cpu.icache.overall_misses::.cpu.inst         4926                       # number of overall misses
system.cpu.icache.overall_misses::total          4926                       # number of overall misses
system.cpu.icache.demand_miss_latency::.cpu.inst    127796500                       # number of demand (read+write) miss cycles
system.cpu.icache.demand_miss_latency::total    127796500                       # number of demand (read+write) miss cycles
system.cpu.icache.overall_miss_latency::.cpu.inst    127796500                       # number of overall miss cycles
system.cpu.icache.overall_miss_latency::total    127796500                       # number of overall miss cycles
system.cpu.icache.demand_accesses::.cpu.inst       151687                       # number of demand (read+write) accesses
system.cpu.icache.demand_accesses::total       151687                       # number of demand (read+write) accesses
system.cpu.icache.overall_accesses::.cpu.inst       151687                       # number of overall (read+write) accesses
system.cpu.icache.overall_accesses::total       151687                       # number of overall (read+write) accesses
system.cpu.icache.demand_miss_rate::.cpu.inst     0.032475                       # miss rate for demand accesses
system.cpu.icache.demand_miss_rate::total     0.032475                       # miss rate for demand accesses
system.cpu.icache.overall_miss_rate::.cpu.inst     0.032475                       # miss rate for overall accesses
system.cpu.icache.overall_miss_rate::total     0.032475                       # miss rate for overall accesses
system.cpu.icache.demand_avg_miss_latency::.cpu.inst 25943.260252                       # average overall miss latency
system.cpu.icache.demand_avg_miss_latency::total 25943.260252                       # average overall miss latency
system.cpu.icache.overall_avg_miss_latency::.cpu.inst 25943.260252                       # average overall miss latency
system.cpu.icache.overall_avg_miss_latency::total 25943.260252                       # average overall miss latency
system.cpu.icache.blocked_cycles::no_mshrs            0                       # number of cycles access was blocked
system.cpu.icache.blocked_cycles::no_targets            0                       # number of cycles access was blocked
system.cpu.icache.blocked::no_mshrs                 0                       # number of cycles access was blocked
system.cpu.icache.blocked::no_targets               0                       # number of cycles access was blocked
system.cpu.icache.avg_blocked_cycles::no_mshrs          nan                       # average number of cycles each access was blocked
system.cpu.icache.avg_blocked_cycles::no_targets          nan                       # average number of cycles each access was blocked
system.cpu.icache.writebacks::.writebacks         4601                       # number of writebacks
system.cpu.icache.writebacks::total              4601                       # number of writebacks
system.cpu.icache.demand_mshr_misses::.cpu.inst         4926                       # number of demand (read+write) MSHR misses
system.cpu.icache.demand_mshr_misses::total         4926                       # number of demand (read+write) MSHR misses
system.cpu.icache.overall_mshr_misses::.cpu.inst         4926                       # number of overall MSHR misses
system.cpu.icache.overall_mshr_misses::total         4926                       # number of overall MSHR misses
system.cpu.icache.demand_mshr_miss_latency::.cpu.inst    122870500                       # number of demand (read+write) MSHR miss cycles
system.cpu.icache.demand_mshr_miss_latency::total    122870500                       # number of demand (read+write) MSHR miss cycles
system.cpu.icache.overall_mshr_miss_latency::.cpu.inst    122870500                       # number of overall MSHR miss cycles
system.cpu.icache.overall_mshr_miss_latency::total    122870500                       # number of overall MSHR miss cycles
system.cpu.icache.demand_mshr_miss_rate::.cpu.inst     0.032475                       # mshr miss rate for demand accesses
system.cpu.icache.demand_mshr_miss_rate::total     0.032475                       # mshr miss rate for demand accesses
system.cpu.icache.overall_mshr_miss_rate::.cpu.inst     0.032475                       # mshr miss rate for overall accesses
system.cpu.icache.overall_mshr_miss_rate::total     0.032475                       # mshr miss rate for overall accesses
system.cpu.icache.demand_avg_mshr_miss_latency::.cpu.inst 24943.260252                       # average overall mshr miss latency
system.cpu.icache.demand_avg_mshr_miss_latency::total 24943.260252                       # average overall mshr miss latency
system.cpu.icache.overall_avg_mshr_miss_latency::.cpu.inst 24943.260252                       # average overall mshr miss latency
system.cpu.icache.overall_avg_mshr_miss_latency::total 24943.260252                       # average overall mshr miss latency
system.cpu.icache.replacements                   4601                       # number of replacements
system.cpu.icache.ReadReq_hits::.cpu.inst       146761                       # number of ReadReq hits
system.cpu.icache.ReadReq_hits::total          146761                       # number of ReadReq hits
system.cpu.icache.ReadReq_misses::.cpu.inst         4926                       # number of ReadReq misses
system.cpu.icache.ReadReq_misses::total          4926                       # number of ReadReq misses
system.cpu.icache.ReadReq_miss_latency::.cpu.inst    127796500                       # number of ReadReq miss cycles
system.cpu.icache.ReadReq_miss_latency::total    127796500                       # number of ReadReq miss cycles
system.cpu.icache.ReadReq_accesses::.cpu.inst       151687                       # number of ReadReq accesses(hits+misses)
system.cpu.icache.ReadReq_accesses::total       151687                       # number of ReadReq accesses(hits+misses)
system.cpu.icache.ReadReq_miss_rate::.cpu.inst     0.032475                       # miss rate for ReadReq accesses
system.cpu.icache.ReadReq_miss_rate::total     0.032475                       # miss rate for ReadReq accesses
system.cpu.icache.ReadReq_avg_miss_latency::.cpu.inst 25943.260252                       # average ReadReq miss latency
system.cpu.icache.ReadReq_avg_miss_latency::total 25943.260252                       # average ReadReq miss latency
system.cpu.icache.ReadReq_mshr_misses::.cpu.inst         4926                       # number of ReadReq MSHR misses
system.cpu.icache.ReadReq_mshr_misses::total         4926                       # number of ReadReq MSHR misses
system.cpu.icache.ReadReq_mshr_miss_latency::.cpu.inst    122870500                       # number of ReadReq MSHR miss cycles
system.cpu.icache.ReadReq_mshr_miss_latency::total    122870500                       # number of ReadReq MSHR miss cycles
system.cpu.icache.ReadReq_mshr_miss_rate::.cpu.inst     0.032475                       # mshr miss rate for ReadReq accesses
system.cpu.icache.ReadReq_mshr_miss_rate::total     0.032475                       # mshr miss rate for ReadReq accesses
system.cpu.icache.ReadReq_avg_mshr_miss_latency::.cpu.inst 24943.260252                       # average ReadReq mshr miss latency
system.cpu.icache.ReadReq_avg_mshr_miss_latency::total 24943.260252                       # average ReadReq mshr miss latency
system.cpu.icache.power_state.pwrStateResidencyTicks::UNDEFINED    399326000                       # Cumulative time (in ticks) in various power states
system.cpu.icache.tags.tagsinuse           289.173062                       # Cycle average of tags in use
system.cpu.icache.tags.total_refs              151687                       # Total number of references to valid blocks.
system.cpu.icache.tags.sampled_refs              4926                       # Sample count of references to valid blocks.
system.cpu.icache.tags.avg_refs             30.793138                       # Average number of references to valid blocks.
system.cpu.icache.tags.warmup_cycle             77000                       # Cycle when the warmup percentage was hit.
system.cpu.icache.tags.occ_blocks::.cpu.inst   289.173062                       # Average occupied blocks per requestor
system.cpu.icache.tags.occ_percent::.cpu.inst     0.564791                       # Average percentage of cache occupancy
system.cpu.icache.tags.occ_percent::total     0.564791                       # Average percentage of cache occupancy
system.cpu.icache.tags.occ_task_id_blocks::1024          325                       # Occupied blocks per task id
system.cpu.icache.tags.age_task_id_blocks_1024::0           46                       # Occupied blocks per task id
system.cpu.icache.tags.age_task_id_blocks_1024::2          279                       # Occupied blocks per task id
system.cpu.icache.tags.occ_task_id_percent::1024     0.634766                       # Percentage of cache occupancy per task id
system.cpu.icache.tags.tag_accesses            308300                       # Number of tag accesses
system.cpu.icache.tags.data_accesses           308300                       # Number of data accesses
system.cpu.icache.tags.power_state.pwrStateResidencyTicks::UNDEFINED    399326000                       # Cumulative time (in ticks) in various power states
system.cpu.itb.instHits                             0                       # ITB inst hits
system.cpu.itb.instMisses                           0                       # ITB inst misses
system.cpu.itb.readHits                             0                       # DTB read hits
system.cpu.itb.readMisses                           0                       # DTB read misses
system.cpu.itb.writeHits                            0                       # DTB write hits
system.cpu.itb.writeMisses                          0                       # DTB write misses
system.cpu.itb.inserts                              0                       # Number of times an entry is inserted into the TLB
system.cpu.itb.flushTlb                             0                       # Number of times complete TLB was flushed
system.cpu.itb.flushTlbMva                          0                       # Number of times TLB was flushed by MVA
system.cpu.itb.flushTlbMvaAsid                      0                       # Number of times TLB was flushed by MVA & ASID
system.cpu.itb.flushTlbAsid                         0                       # Number of times TLB was flushed by ASID
system.cpu.itb.flushedEntries                       0                       # Number of entries that have been flushed from TLB
system.cpu.itb.alignFaults                          0                       # Number of TLB faults due to alignment restrictions
system.cpu.itb.prefetchFaults                       0                       # Number of TLB faults due to prefetch
system.cpu.itb.domainFaults                         0                       # Number of TLB faults due to domain restrictions
system.cpu.itb.permsFaults                          0                       # Number of TLB faults due to permissions restrictions
system.cpu.itb.readAccesses                         0                       # DTB read accesses
system.cpu.itb.writeAccesses                        0                       # DTB write accesses
system.cpu.itb.instAccesses                         0                       # ITB inst accesses
system.cpu.itb.hits                                 0                       # Total TLB (inst and data) hits
system.cpu.itb.misses                               0                       # Total TLB (inst and data) misses
system.cpu.itb.accesses                             0                       # Total TLB (inst and data) accesses
system.cpu.itb.stage2_mmu.stage2_tlb.instHits            0                       # ITB inst hits
system.cpu.itb.stage2_mmu.stage2_tlb.instMisses            0                       # ITB inst misses
system.cpu.itb.stage2_mmu.stage2_tlb.readHits            0                       # DTB read hits
system.cpu.itb.stage2_mmu.stage2_tlb.readMisses            0                       # DTB read misses
system.cpu.itb.stage2_mmu.stage2_tlb.writeHits            0                       # DTB write hits
system.cpu.itb.stage2_mmu.stage2_tlb.writeMisses            0                       # DTB write misses
system.cpu.itb.stage2_mmu.stage2_tlb.inserts            0                       # Number of times an entry is inserted into the TLB
system.cpu.itb.stage2_mmu.stage2_tlb.flushTlb            0                       # Number of times complete TLB was flushed
system.cpu.itb.stage2_mmu.stage2_tlb.flushTlbMva            0                       # Number of times TLB was flushed by MVA
system.cpu.itb.stage2_mmu.stage2_tlb.flushTlbMvaAsid            0                       # Number of times TLB was flushed by MVA & ASID
system.cpu.itb.stage2_mmu.stage2_tlb.flushTlbAsid            0                       # Number of times TLB was flushed by ASID
system.cpu.itb.stage2_mmu.stage2_tlb.flushedEntries            0                       # Number of entries that have been flushed from TLB
system.cpu.itb.stage2_mmu.stage2_tlb.alignFaults            0                       # Number of TLB faults due to alignment restrictions
system.cpu.itb.stage2_mmu.stage2_tlb.prefetchFaults            0                       # Number of TLB faults due to prefetch
system.cpu.itb.stage2_mmu.stage2_tlb.domainFaults            0                       # Number of TLB faults due to domain restrictions
system.cpu.itb.stage2_mmu.stage2_tlb.permsFaults            0                       # Number of TLB faults due to permissions restrictions
system.cpu.itb.stage2_mmu.stage2_tlb.readAccesses            0                       # DTB read accesses
system.cpu.itb.stage2_mmu.stage2_tlb.writeAccesses            0                       # DTB write accesses
system.cpu.itb.stage2_mmu.stage2_tlb.instAccesses            0                       # ITB inst accesses
system.cpu.itb.stage2_mmu.stage2_tlb.hits            0                       # Total TLB (inst and data) hits
system.cpu.itb.stage2_mmu.stage2_tlb.misses            0                       # Total TLB (inst and data) misses
system.cpu.itb.stage2_mmu.stage2_tlb.accesses            0                       # Total TLB (inst and data) accesses
system.cpu.itb.stage2_mmu.stage2_tlb.walker.walks            0                       # Table walker walks requested
system.cpu.itb.stage2_mmu.stage2_tlb.walker.requestOrigin_Requested::Data            0                       # Table walker requests started/completed, data/inst
system.cpu.itb.stage2_mmu.stage2_tlb.walker.requestOrigin_Requested::Inst            0                       # Table walker requests started/completed, data/inst
system.cpu.itb.stage2_mmu.stage2_tlb.walker.requestOrigin_Requested::total            0                       # Table walker requests started/completed, data/inst
system.cpu.itb.stage2_mmu.stage2_tlb.walker.requestOrigin_Completed::Data            0                       # Table walker requests started/completed, data/inst
system.cpu.itb.stage2_mmu.stage2_tlb.walker.requestOrigin_Completed::Inst            0                       # Table walker requests started/completed, data/inst
system.cpu.itb.stage2_mmu.stage2_tlb.walker.requestOrigin_Completed::total            0                       # Table walker requests started/completed, data/inst
system.cpu.itb.stage2_mmu.stage2_tlb.walker.requestOrigin::total            0                       # Table walker requests started/completed, data/inst
system.cpu.itb.stage2_mmu.stage2_tlb.walker.power_state.pwrStateResidencyTicks::UNDEFINED    399326000                       # Cumulative time (in ticks) in various power states
system.cpu.itb.walker.walks                         0                       # Table walker walks requested
system.cpu.itb.walker.requestOrigin_Requested::Data            0                       # Table walker requests started/completed, data/inst
system.cpu.itb.walker.requestOrigin_Requested::Inst            0                       # Table walker requests started/completed, data/inst
system.cpu.itb.walker.requestOrigin_Requested::total            0                       # Table walker requests started/completed, data/inst
system.cpu.itb.walker.requestOrigin_Completed::Data            0                       # Table walker requests started/completed, data/inst
system.cpu.itb.walker.requestOrigin_Completed::Inst            0                       # Table walker requests started/completed, data/inst
system.cpu.itb.walker.requestOrigin_Completed::total            0                       # Table walker requests started/completed, data/inst
system.cpu.itb.walker.requestOrigin::total            0                       # Table walker requests started/completed, data/inst
system.cpu.itb.walker.power_state.pwrStateResidencyTicks::UNDEFINED    399326000                       # Cumulative time (in ticks) in various power states
system.cpu.power_state.pwrStateResidencyTicks::ON    399326000                       # Cumulative time (in ticks) in various power states
system.cpu.thread_0.numInsts                   422085                       # Number of Instructions committed
system.cpu.thread_0.numOps                     501899                       # Number of Ops committed
system.cpu.thread_0.numMemRefs                      0                       # Number of Memory References
system.cpu_clk_domain.clock                       500                       # Clock period in ticks
system.cpu_voltage_domain.voltage                   1                       # Voltage in Volts
system.mem_ctrls.avgPriority_.writebacks::samples       107.00                       # Average QoS priority value for accepted requests
system.mem_ctrls.avgPriority_.cpu.inst::samples       415.00                       # Average QoS priority value for accepted requests
system.mem_ctrls.avgPriority_.cpu.data::samples       175.00                       # Average QoS priority value for accepted requests
system.mem_ctrls.priorityMinLatency      0.000000018750                       # per QoS priority minimum request to response latency (s)
system.mem_ctrls.priorityMaxLatency      0.000739916500                       # per QoS priority maximum request to response latency (s)
system.mem_ctrls.numReadWriteTurnArounds            5                       # Number of turnarounds from READ to WRITE
system.mem_ctrls.numWriteReadTurnArounds            5                       # Number of turnarounds from WRITE to READ
system.mem_ctrls.numStayReadState                5864                       # Number of times bus staying in READ state
system.mem_ctrls.numStayWriteState                 76                       # Number of times bus staying in WRITE state
system.mem_ctrls.readReqs                        5101                       # Number of read requests accepted
system.mem_ctrls.writeReqs                       4595                       # Number of write requests accepted
system.mem_ctrls.readBursts                      5101                       # Number of controller read bursts, including those serviced by the write queue
system.mem_ctrls.writeBursts                     4595                       # Number of controller write bursts, including those merged in the write queue
system.mem_ctrls.servicedByWrQ                   4511                       # Number of controller read bursts serviced by the write queue
system.mem_ctrls.mergedWrBursts                  4488                       # Number of controller write bursts merged with an existing one
system.mem_ctrls.neitherReadNorWriteReqs            0                       # Number of requests that are neither read nor write
system.mem_ctrls.avgRdQLen                       1.02                       # Average read queue length when enqueuing
system.mem_ctrls.avgWrQLen                      24.87                       # Average write queue length when enqueuing
system.mem_ctrls.numRdRetry                         0                       # Number of times read queue was full causing retry
system.mem_ctrls.numWrRetry                         0                       # Number of times write queue was full causing retry
system.mem_ctrls.readPktSize::0                     0                       # Read request sizes (log2)
system.mem_ctrls.readPktSize::1                     0                       # Read request sizes (log2)
system.mem_ctrls.readPktSize::2                     0                       # Read request sizes (log2)
system.mem_ctrls.readPktSize::3                     0                       # Read request sizes (log2)
system.mem_ctrls.readPktSize::4                     0                       # Read request sizes (log2)
system.mem_ctrls.readPktSize::5                     0                       # Read request sizes (log2)
system.mem_ctrls.readPktSize::6                  5101                       # Read request sizes (log2)
system.mem_ctrls.writePktSize::0                    0                       # Write request sizes (log2)
system.mem_ctrls.writePktSize::1                    0                       # Write request sizes (log2)
system.mem_ctrls.writePktSize::2                    0                       # Write request sizes (log2)
system.mem_ctrls.writePktSize::3                    0                       # Write request sizes (log2)
system.mem_ctrls.writePktSize::4                    0                       # Write request sizes (log2)
system.mem_ctrls.writePktSize::5                    0                       # Write request sizes (log2)
system.mem_ctrls.writePktSize::6                 4595                       # Write request sizes (log2)
system.mem_ctrls.rdQLenPdf::0                     500                       # What read queue length does an incoming req see
system.mem_ctrls.rdQLenPdf::1                      86                       # What read queue length does an incoming req see
system.mem_ctrls.rdQLenPdf::2                       4                       # What read queue length does an incoming req see
system.mem_ctrls.rdQLenPdf::3                       0                       # What read queue length does an incoming req see
system.mem_ctrls.rdQLenPdf::4                       0                       # What read queue length does an incoming req see
system.mem_ctrls.rdQLenPdf::5                       0                       # What read queue length does an incoming req see
system.mem_ctrls.rdQLenPdf::6                       0                       # What read queue length does an incoming req see
system.mem_ctrls.rdQLenPdf::7                       0                       # What read queue length does an incoming req see
system.mem_ctrls.rdQLenPdf::8                       0                       # What read queue length does an incoming req see
system.mem_ctrls.rdQLenPdf::9                       0                       # What read queue length does an incoming req see
system.mem_ctrls.rdQLenPdf::10                      0                       # What read queue length does an incoming req see
system.mem_ctrls.rdQLenPdf::11                      0                       # What read queue length does an incoming req see
system.mem_ctrls.rdQLenPdf::12                      0                       # What read queue length does an incoming req see
system.mem_ctrls.rdQLenPdf::13                      0                       # What read queue length does an incoming req see
system.mem_ctrls.rdQLenPdf::14                      0                       # What read queue length does an incoming req see
system.mem_ctrls.rdQLenPdf::15                      0                       # What read queue length does an incoming req see
system.mem_ctrls.rdQLenPdf::16                      0                       # What read queue length does an incoming req see
system.mem_ctrls.rdQLenPdf::17                      0                       # What read queue length does an incoming req see
system.mem_ctrls.rdQLenPdf::18                      0                       # What read queue length does an incoming req see
system.mem_ctrls.rdQLenPdf::19                      0                       # What read queue length does an incoming req see
system.mem_ctrls.rdQLenPdf::20                      0                       # What read queue length does an incoming req see
system.mem_ctrls.rdQLenPdf::21                      0                       # What read queue length does an incoming req see
system.mem_ctrls.rdQLenPdf::22                      0                       # What read queue length does an incoming req see
system.mem_ctrls.rdQLenPdf::23                      0                       # What read queue length does an incoming req see
system.mem_ctrls.rdQLenPdf::24                      0                       # What read queue length does an incoming req see
system.mem_ctrls.rdQLenPdf::25                      0                       # What read queue length does an incoming req see
system.mem_ctrls.rdQLenPdf::26                      0                       # What read queue length does an incoming req see
system.mem_ctrls.rdQLenPdf::27                      0                       # What read queue length does an incoming req see
system.mem_ctrls.rdQLenPdf::28                      0                       # What read queue length does an incoming req see
system.mem_ctrls.rdQLenPdf::29                      0                       # What read queue length does an incoming req see
system.mem_ctrls.rdQLenPdf::30                      0                       # What read queue length does an incoming req see
system.mem_ctrls.rdQLenPdf::31                      0                       # What read queue length does an incoming req see
system.mem_ctrls.wrQLenPdf::0                       1                       # What write queue length does an incoming req see
system.mem_ctrls.wrQLenPdf::1                       1                       # What write queue length does an incoming req see
system.mem_ctrls.wrQLenPdf::2                       1                       # What write queue length does an incoming req see
system.mem_ctrls.wrQLenPdf::3                       1                       # What write queue length does an incoming req see
system.mem_ctrls.wrQLenPdf::4                       1                       # What write queue length does an incoming req see
system.mem_ctrls.wrQLenPdf::5                       1                       # What write queue length does an incoming req see
system.mem_ctrls.wrQLenPdf::6                       1                       # What write queue length does an incoming req see
system.mem_ctrls.wrQLenPdf::7                       1                       # What write queue length does an incoming req see
system.mem_ctrls.wrQLenPdf::8                       1                       # What write queue length does an incoming req see
system.mem_ctrls.wrQLenPdf::9                       1                       # What write queue length does an incoming req see
system.mem_ctrls.wrQLenPdf::10                      1                       # What write queue length does an incoming req see
system.mem_ctrls.wrQLenPdf::11                      1                       # What write queue length does an incoming req see
system.mem_ctrls.wrQLenPdf::12                      1                       # What write queue length does an incoming req see
system.mem_ctrls.wrQLenPdf::13                      1                       # What write queue length does an incoming req see
system.mem_ctrls.wrQLenPdf::14                      1                       # What write queue length does an incoming req see
system.mem_ctrls.wrQLenPdf::15                      1                       # What write queue length does an incoming req see
system.mem_ctrls.wrQLenPdf::16                      1                       # What write queue length does an incoming req see
system.mem_ctrls.wrQLenPdf::17                      6                       # What write queue length does an incoming req see
system.mem_ctrls.wrQLenPdf::18                      6                       # What write queue length does an incoming req see
system.mem_ctrls.wrQLenPdf::19                      6                       # What write queue length does an incoming req see
system.mem_ctrls.wrQLenPdf::20                      6                       # What write queue length does an incoming req see
system.mem_ctrls.wrQLenPdf::21                      6                       # What write queue length does an incoming req see
system.mem_ctrls.wrQLenPdf::22                      7                       # What write queue length does an incoming req see
system.mem_ctrls.wrQLenPdf::23                      6                       # What write queue length does an incoming req see
system.mem_ctrls.wrQLenPdf::24                      6                       # What write queue length does an incoming req see
system.mem_ctrls.wrQLenPdf::25                      6                       # What write queue length does an incoming req see
system.mem_ctrls.wrQLenPdf::26                      5                       # What write queue length does an incoming req see
system.mem_ctrls.wrQLenPdf::27                      5                       # What write queue length does an incoming req see
system.mem_ctrls.wrQLenPdf::28                      5                       # What write queue length does an incoming req see
system.mem_ctrls.wrQLenPdf::29                      5                       # What write queue length does an incoming req see
system.mem_ctrls.wrQLenPdf::30                      5                       # What write queue length does an incoming req see
system.mem_ctrls.wrQLenPdf::31                      5                       # What write queue length does an incoming req see
system.mem_ctrls.wrQLenPdf::32                      5                       # What write queue length does an incoming req see
system.mem_ctrls.wrQLenPdf::33                      0                       # What write queue length does an incoming req see
system.mem_ctrls.wrQLenPdf::34                      0                       # What write queue length does an incoming req see
system.mem_ctrls.wrQLenPdf::35                      0                       # What write queue length does an incoming req see
system.mem_ctrls.wrQLenPdf::36                      0                       # What write queue length does an incoming req see
system.mem_ctrls.wrQLenPdf::37                      0                       # What write queue length does an incoming req see
system.mem_ctrls.wrQLenPdf::38                      0                       # What write queue length does an incoming req see
system.mem_ctrls.wrQLenPdf::39                      0                       # What write queue length does an incoming req see
system.mem_ctrls.wrQLenPdf::40                      0                       # What write queue length does an incoming req see
system.mem_ctrls.wrQLenPdf::41                      0                       # What write queue length does an incoming req see
system.mem_ctrls.wrQLenPdf::42                      0                       # What write queue length does an incoming req see
system.mem_ctrls.wrQLenPdf::43                      0                       # What write queue length does an incoming req see
system.mem_ctrls.wrQLenPdf::44                      0                       # What write queue length does an incoming req see
system.mem_ctrls.wrQLenPdf::45                      0                       # What write queue length does an incoming req see
system.mem_ctrls.wrQLenPdf::46                      0                       # What write queue length does an incoming req see
system.mem_ctrls.wrQLenPdf::47                      0                       # What write queue length does an incoming req see
system.mem_ctrls.wrQLenPdf::48                      0                       # What write queue length does an incoming req see
system.mem_ctrls.wrQLenPdf::49                      0                       # What write queue length does an incoming req see
system.mem_ctrls.wrQLenPdf::50                      0                       # What write queue length does an incoming req see
system.mem_ctrls.wrQLenPdf::51                      0                       # What write queue length does an incoming req see
system.mem_ctrls.wrQLenPdf::52                      0                       # What write queue length does an incoming req see
system.mem_ctrls.wrQLenPdf::53                      0                       # What write queue length does an incoming req see
system.mem_ctrls.wrQLenPdf::54                      0                       # What write queue length does an incoming req see
system.mem_ctrls.wrQLenPdf::55                      0                       # What write queue length does an incoming req see
system.mem_ctrls.wrQLenPdf::56                      0                       # What write queue length does an incoming req see
system.mem_ctrls.wrQLenPdf::57                      0                       # What write queue length does an incoming req see
system.mem_ctrls.wrQLenPdf::58                      0                       # What write queue length does an incoming req see
system.mem_ctrls.wrQLenPdf::59                      0                       # What write queue length does an incoming req see
system.mem_ctrls.wrQLenPdf::60                      0                       # What write queue length does an incoming req see
system.mem_ctrls.wrQLenPdf::61                      0                       # What write queue length does an incoming req see
system.mem_ctrls.wrQLenPdf::62                      0                       # What write queue length does an incoming req see
system.mem_ctrls.wrQLenPdf::63                      0                       # What write queue length does an incoming req see
system.mem_ctrls.rdPerTurnAround::samples            5                       # Reads before turning the bus around for writes
system.mem_ctrls.rdPerTurnAround::mean     109.400000                       # Reads before turning the bus around for writes
system.mem_ctrls.rdPerTurnAround::gmean     63.358640                       # Reads before turning the bus around for writes
system.mem_ctrls.rdPerTurnAround::stdev    146.189261                       # Reads before turning the bus around for writes
system.mem_ctrls.rdPerTurnAround::16-31             2     40.00%     40.00% # Reads before turning the bus around for writes
system.mem_ctrls.rdPerTurnAround::48-63             2     40.00%     80.00% # Reads before turning the bus around for writes
system.mem_ctrls.rdPerTurnAround::368-383            1     20.00%    100.00% # Reads before turning the bus around for writes
system.mem_ctrls.rdPerTurnAround::total             5                       # Reads before turning the bus around for writes
system.mem_ctrls.wrPerTurnAround::samples            5                       # Writes before turning the bus around for reads
system.mem_ctrls.wrPerTurnAround::mean      16.200000                       # Writes before turning the bus around for reads
system.mem_ctrls.wrPerTurnAround::gmean     16.195180                       # Writes before turning the bus around for reads
system.mem_ctrls.wrPerTurnAround::stdev      0.447214                       # Writes before turning the bus around for reads
system.mem_ctrls.wrPerTurnAround::16                4     80.00%     80.00% # Writes before turning the bus around for reads
system.mem_ctrls.wrPerTurnAround::17                1     20.00%    100.00% # Writes before turning the bus around for reads
system.mem_ctrls.wrPerTurnAround::total             5                       # Writes before turning the bus around for reads
system.mem_ctrls.bytesReadWrQ                  288704                       # Total number of bytes read from write queue
system.mem_ctrls.bytesReadSys                  326464                       # Total read bytes from the system interface side
system.mem_ctrls.bytesWrittenSys               294080                       # Total written bytes from the system interface side
system.mem_ctrls.avgRdBWSys                    817.54                       # Average system read bandwidth in MiByte/s
system.mem_ctrls.avgWrBWSys                    736.44                       # Average system write bandwidth in MiByte/s
system.mem_ctrls.totGap                     399267500                       # Total gap between requests
system.mem_ctrls.avgGap                      41178.58                       # Average gap between requests
system.mem_ctrls.requestorReadBytes::.cpu.inst        26560                       # Per-requestor bytes read from memory
system.mem_ctrls.requestorReadBytes::.cpu.data        11200                       # Per-requestor bytes read from memory
system.mem_ctrls.requestorWriteBytes::.writebacks         5184                       # Per-requestor bytes write to memory
system.mem_ctrls.requestorReadRate::.cpu.inst 66512072.842740021646                       # Per-requestor bytes read from memory rate (Bytes/sec)
system.mem_ctrls.requestorReadRate::.cpu.data 28047259.632480733097                       # Per-requestor bytes read from memory rate (Bytes/sec)
system.mem_ctrls.requestorWriteRate::.writebacks 12981874.458462510258                       # Per-requestor bytes write to memory rate (Bytes/sec)
system.mem_ctrls.requestorReadAccesses::.cpu.inst         4926                       # Per-requestor read serviced memory accesses
system.mem_ctrls.requestorReadAccesses::.cpu.data          175                       # Per-requestor read serviced memory accesses
system.mem_ctrls.requestorWriteAccesses::.writebacks         4595                       # Per-requestor write serviced memory accesses
system.mem_ctrls.requestorReadTotalLat::.cpu.inst     10660750                       # Per-requestor read total memory access latency
system.mem_ctrls.requestorReadTotalLat::.cpu.data      5373500                       # Per-requestor read total memory access latency
system.mem_ctrls.requestorWriteTotalLat::.writebacks   5489178750                       # Per-requestor write total memory access latency
system.mem_ctrls.requestorReadAvgLat::.cpu.inst      2164.18                       # Per-requestor read average memory access latency
system.mem_ctrls.requestorReadAvgLat::.cpu.data     30705.71                       # Per-requestor read average memory access latency
system.mem_ctrls.requestorWriteAvgLat::.writebacks   1194598.20                       # Per-requestor write average memory access latency
system.mem_ctrls.dram.bytes_read::.cpu.inst       315264                       # Number of bytes read from this memory
system.mem_ctrls.dram.bytes_read::.cpu.data        11200                       # Number of bytes read from this memory
system.mem_ctrls.dram.bytes_read::total        326464                       # Number of bytes read from this memory
system.mem_ctrls.dram.bytes_inst_read::.cpu.inst       315264                       # Number of instructions bytes read from this memory
system.mem_ctrls.dram.bytes_inst_read::total       315264                       # Number of instructions bytes read from this memory
system.mem_ctrls.dram.num_reads::.cpu.inst         4926                       # Number of read requests responded to by this memory
system.mem_ctrls.dram.num_reads::.cpu.data          175                       # Number of read requests responded to by this memory
system.mem_ctrls.dram.num_reads::total           5101                       # Number of read requests responded to by this memory
system.mem_ctrls.dram.bw_read::.cpu.inst    789490291                       # Total read bandwidth from this memory (bytes/s)
system.mem_ctrls.dram.bw_read::.cpu.data     28047260                       # Total read bandwidth from this memory (bytes/s)
system.mem_ctrls.dram.bw_read::total        817537551                       # Total read bandwidth from this memory (bytes/s)
system.mem_ctrls.dram.bw_inst_read::.cpu.inst    789490291                       # Instruction read bandwidth from this memory (bytes/s)
system.mem_ctrls.dram.bw_inst_read::total    789490291                       # Instruction read bandwidth from this memory (bytes/s)
system.mem_ctrls.dram.bw_total::.cpu.inst    789490291                       # Total bandwidth to/from this memory (bytes/s)
system.mem_ctrls.dram.bw_total::.cpu.data     28047260                       # Total bandwidth to/from this memory (bytes/s)
system.mem_ctrls.dram.bw_total::total       817537551                       # Total bandwidth to/from this memory (bytes/s)
system.mem_ctrls.dram.readBursts                  590                       # Number of DRAM read bursts
system.mem_ctrls.dram.writeBursts                  81                       # Number of DRAM write bursts
system.mem_ctrls.dram.perBankRdBursts::0           59                       # Per bank write bursts
system.mem_ctrls.dram.perBankRdBursts::1            2                       # Per bank write bursts
system.mem_ctrls.dram.perBankRdBursts::2           23                       # Per bank write bursts
system.mem_ctrls.dram.perBankRdBursts::3           48                       # Per bank write bursts
system.mem_ctrls.dram.perBankRdBursts::4           20                       # Per bank write bursts
system.mem_ctrls.dram.perBankRdBursts::5           33                       # Per bank write bursts
system.mem_ctrls.dram.perBankRdBursts::6           52                       # Per bank write bursts
system.mem_ctrls.dram.perBankRdBursts::7           46                       # Per bank write bursts
system.mem_ctrls.dram.perBankRdBursts::8           75                       # Per bank write bursts
system.mem_ctrls.dram.perBankRdBursts::9           84                       # Per bank write bursts
system.mem_ctrls.dram.perBankRdBursts::10           36                       # Per bank write bursts
system.mem_ctrls.dram.perBankRdBursts::11           82                       # Per bank write bursts
system.mem_ctrls.dram.perBankRdBursts::12           16                       # Per bank write bursts
system.mem_ctrls.dram.perBankRdBursts::13            8                       # Per bank write bursts
system.mem_ctrls.dram.perBankRdBursts::14            6                       # Per bank write bursts
system.mem_ctrls.dram.perBankRdBursts::15            0                       # Per bank write bursts
system.mem_ctrls.dram.perBankWrBursts::0           16                       # Per bank write bursts
system.mem_ctrls.dram.perBankWrBursts::1            0                       # Per bank write bursts
system.mem_ctrls.dram.perBankWrBursts::2           10                       # Per bank write bursts
system.mem_ctrls.dram.perBankWrBursts::3            4                       # Per bank write bursts
system.mem_ctrls.dram.perBankWrBursts::4            0                       # Per bank write bursts
system.mem_ctrls.dram.perBankWrBursts::5            1                       # Per bank write bursts
system.mem_ctrls.dram.perBankWrBursts::6            1                       # Per bank write bursts
system.mem_ctrls.dram.perBankWrBursts::7            9                       # Per bank write bursts
system.mem_ctrls.dram.perBankWrBursts::8           21                       # Per bank write bursts
system.mem_ctrls.dram.perBankWrBursts::9            4                       # Per bank write bursts
system.mem_ctrls.dram.perBankWrBursts::10            0                       # Per bank write bursts
system.mem_ctrls.dram.perBankWrBursts::11           15                       # Per bank write bursts
system.mem_ctrls.dram.perBankWrBursts::12            0                       # Per bank write bursts
system.mem_ctrls.dram.perBankWrBursts::13            0                       # Per bank write bursts
system.mem_ctrls.dram.perBankWrBursts::14            0                       # Per bank write bursts
system.mem_ctrls.dram.perBankWrBursts::15            0                       # Per bank write bursts
system.mem_ctrls.dram.totQLat                 4971750                       # Total ticks spent queuing
system.mem_ctrls.dram.totBusLat               2950000                       # Total ticks spent in databus transfers
system.mem_ctrls.dram.totMemAccLat           16034250                       # Total ticks spent from burst creation until serviced by the DRAM
system.mem_ctrls.dram.avgQLat                 8426.69                       # Average queueing delay per DRAM burst
system.mem_ctrls.dram.avgBusLat               5000.00                       # Average bus latency per DRAM burst
system.mem_ctrls.dram.avgMemAccLat           27176.69                       # Average memory access latency per DRAM burst
system.mem_ctrls.dram.readRowHits                 467                       # Number of row buffer hits during reads
system.mem_ctrls.dram.writeRowHits                 66                       # Number of row buffer hits during writes
system.mem_ctrls.dram.readRowHitRate            79.15                       # Row buffer hit rate for reads
system.mem_ctrls.dram.writeRowHitRate           81.48                       # Row buffer hit rate for writes
system.mem_ctrls.dram.bytesPerActivate::samples          133                       # Bytes accessed per row activation
system.mem_ctrls.dram.bytesPerActivate::mean   314.225564                       # Bytes accessed per row activation
system.mem_ctrls.dram.bytesPerActivate::gmean   208.961189                       # Bytes accessed per row activation
system.mem_ctrls.dram.bytesPerActivate::stdev   295.231358                       # Bytes accessed per row activation
system.mem_ctrls.dram.bytesPerActivate::0-127           35     26.32%     26.32% # Bytes accessed per row activation
system.mem_ctrls.dram.bytesPerActivate::128-255           33     24.81%     51.13% # Bytes accessed per row activation
system.mem_ctrls.dram.bytesPerActivate::256-383           30     22.56%     73.68% # Bytes accessed per row activation
system.mem_ctrls.dram.bytesPerActivate::384-511            8      6.02%     79.70% # Bytes accessed per row activation
system.mem_ctrls.dram.bytesPerActivate::512-639            6      4.51%     84.21% # Bytes accessed per row activation
system.mem_ctrls.dram.bytesPerActivate::640-767            3      2.26%     86.47% # Bytes accessed per row activation
system.mem_ctrls.dram.bytesPerActivate::768-895            5      3.76%     90.23% # Bytes accessed per row activation
system.mem_ctrls.dram.bytesPerActivate::896-1023            1      0.75%     90.98% # Bytes accessed per row activation
system.mem_ctrls.dram.bytesPerActivate::1024-1151           12      9.02%    100.00% # Bytes accessed per row activation
system.mem_ctrls.dram.bytesPerActivate::total          133                       # Bytes accessed per row activation
system.mem_ctrls.dram.bytesRead                 37760                       # Total number of bytes read from DRAM
system.mem_ctrls.dram.bytesWritten               5184                       # Total number of bytes written to DRAM
system.mem_ctrls.dram.avgRdBW               94.559332                       # Average DRAM read bandwidth in MiBytes/s
system.mem_ctrls.dram.avgWrBW               12.981874                       # Average DRAM write bandwidth in MiBytes/s
system.mem_ctrls.dram.peakBW                 12800.00                       # Theoretical peak bandwidth in MiByte/s
system.mem_ctrls.dram.busUtil                    0.84                       # Data bus utilization in percentage
system.mem_ctrls.dram.busUtilRead                0.74                       # Data bus utilization in percentage for reads
system.mem_ctrls.dram.busUtilWrite               0.10                       # Data bus utilization in percentage for writes
system.mem_ctrls.dram.pageHitRate               79.43                       # Row buffer hit rate, read and write combined
system.mem_ctrls.dram.power_state.pwrStateResidencyTicks::UNDEFINED    399326000                       # Cumulative time (in ticks) in various power states
system.mem_ctrls.dram.rank0.actEnergy          428400                       # Energy for activate commands per rank (pJ)
system.mem_ctrls.dram.rank0.preEnergy          216315                       # Energy for precharge commands per rank (pJ)
system.mem_ctrls.dram.rank0.readEnergy        2020620                       # Energy for read commands per rank (pJ)
system.mem_ctrls.dram.rank0.writeEnergy        214020                       # Energy for write commands per rank (pJ)
system.mem_ctrls.dram.rank0.refreshEnergy 31346640.000000                       # Energy for refresh commands per rank (pJ)
system.mem_ctrls.dram.rank0.actBackEnergy     23148840                       # Energy for active background per rank (pJ)
system.mem_ctrls.dram.rank0.preBackEnergy    133847520                       # Energy for precharge background per rank (pJ)
system.mem_ctrls.dram.rank0.actPowerDownEnergy            0                       # Energy for active power-down per rank (pJ)
system.mem_ctrls.dram.rank0.prePowerDownEnergy            0                       # Energy for precharge power-down per rank (pJ)
system.mem_ctrls.dram.rank0.selfRefreshEnergy            0                       # Energy for self refresh per rank (pJ)
system.mem_ctrls.dram.rank0.totalEnergy     191222355                       # Total energy per rank (pJ)
system.mem_ctrls.dram.rank0.averagePower   478.862771                       # Core power per rank (mW)
system.mem_ctrls.dram.rank0.totalIdleTime            0                       # Total Idle time Per DRAM Rank
system.mem_ctrls.dram.rank0.pwrStateTime::IDLE    347749250                       # Time in different power states
system.mem_ctrls.dram.rank0.pwrStateTime::REF     13260000                       # Time in different power states
system.mem_ctrls.dram.rank0.pwrStateTime::SREF            0                       # Time in different power states
system.mem_ctrls.dram.rank0.pwrStateTime::PRE_PDN            0                       # Time in different power states
system.mem_ctrls.dram.rank0.pwrStateTime::ACT     38316750                       # Time in different power states
system.mem_ctrls.dram.rank0.pwrStateTime::ACT_PDN            0                       # Time in different power states
system.mem_ctrls.dram.rank1.actEnergy          556920                       # Energy for activate commands per rank (pJ)
system.mem_ctrls.dram.rank1.preEnergy          288420                       # Energy for precharge commands per rank (pJ)
system.mem_ctrls.dram.rank1.readEnergy        2191980                       # Energy for read commands per rank (pJ)
system.mem_ctrls.dram.rank1.writeEnergy        208800                       # Energy for write commands per rank (pJ)
system.mem_ctrls.dram.rank1.refreshEnergy 31346640.000000                       # Energy for refresh commands per rank (pJ)
system.mem_ctrls.dram.rank1.actBackEnergy     23396220                       # Energy for active background per rank (pJ)
system.mem_ctrls.dram.rank1.preBackEnergy    133639200                       # Energy for precharge background per rank (pJ)
system.mem_ctrls.dram.rank1.actPowerDownEnergy            0                       # Energy for active power-down per rank (pJ)
system.mem_ctrls.dram.rank1.prePowerDownEnergy            0                       # Energy for precharge power-down per rank (pJ)
system.mem_ctrls.dram.rank1.selfRefreshEnergy            0                       # Energy for self refresh per rank (pJ)
system.mem_ctrls.dram.rank1.totalEnergy     191628180                       # Total energy per rank (pJ)
system.mem_ctrls.dram.rank1.averagePower   479.879046                       # Core power per rank (mW)
system.mem_ctrls.dram.rank1.totalIdleTime            0                       # Total Idle time Per DRAM Rank
system.mem_ctrls.dram.rank1.pwrStateTime::IDLE    347178000                       # Time in different power states
system.mem_ctrls.dram.rank1.pwrStateTime::REF     13260000                       # Time in different power states
system.mem_ctrls.dram.rank1.pwrStateTime::SREF            0                       # Time in different power states
system.mem_ctrls.dram.rank1.pwrStateTime::PRE_PDN            0                       # Time in different power states
system.mem_ctrls.dram.rank1.pwrStateTime::ACT     38888000                       # Time in different power states
system.mem_ctrls.dram.rank1.pwrStateTime::ACT_PDN            0                       # Time in different power states
system.mem_ctrls.power_state.pwrStateResidencyTicks::UNDEFINED    399326000                       # Cumulative time (in ticks) in various power states
system.membus.trans_dist::ReadResp               5034                       # Transaction distribution
system.membus.trans_dist::WritebackClean         4601                       # Transaction distribution
system.membus.trans_dist::ReadExReq                67                       # Transaction distribution
system.membus.trans_dist::ReadExResp               67                       # Transaction distribution
system.membus.trans_dist::ReadCleanReq           4926                       # Transaction distribution
system.membus.trans_dist::ReadSharedReq           108                       # Transaction distribution
system.membus.pkt_count_system.cpu.icache.mem_side_port::system.mem_ctrls.port        14453                       # Packet count per connected requestor and responder (bytes)
system.membus.pkt_count_system.cpu.dcache.mem_side_port::system.mem_ctrls.port          350                       # Packet count per connected requestor and responder (bytes)
system.membus.pkt_count::total                  14803                       # Packet count per connected requestor and responder (bytes)
system.membus.pkt_size_system.cpu.icache.mem_side_port::system.mem_ctrls.port       609728                       # Cumulative packet size per connected requestor and responder (bytes)
system.membus.pkt_size_system.cpu.dcache.mem_side_port::system.mem_ctrls.port        11200                       # Cumulative packet size per connected requestor and responder (bytes)
system.membus.pkt_size::total                  620928                       # Cumulative packet size per connected requestor and responder (bytes)
system.membus.snoops                                0                       # Total snoops (count)
system.membus.snoopTraffic                          0                       # Total snoop traffic (bytes)
system.membus.snoop_fanout::samples              5101                       # Request fanout histogram
system.membus.snoop_fanout::mean             0.005097                       # Request fanout histogram
system.membus.snoop_fanout::stdev            0.071218                       # Request fanout histogram
system.membus.snoop_fanout::underflows              0      0.00%      0.00% # Request fanout histogram
system.membus.snoop_fanout::0                    5075     99.49%     99.49% # Request fanout histogram
system.membus.snoop_fanout::1                      26      0.51%    100.00% # Request fanout histogram
system.membus.snoop_fanout::2                       0      0.00%    100.00% # Request fanout histogram
system.membus.snoop_fanout::overflows               0      0.00%    100.00% # Request fanout histogram
system.membus.snoop_fanout::min_value               0                       # Request fanout histogram
system.membus.snoop_fanout::max_value               1                       # Request fanout histogram
system.membus.snoop_fanout::total                5101                       # Request fanout histogram
system.membus.power_state.pwrStateResidencyTicks::UNDEFINED    399326000                       # Cumulative time (in ticks) in various power states
system.membus.reqLayer0.occupancy            28973000                       # Layer occupancy (ticks)
system.membus.reqLayer0.utilization               7.3                       # Layer utilization (%)
system.membus.respLayer1.occupancy           24762250                       # Layer occupancy (ticks)
system.membus.respLayer1.utilization              6.2                       # Layer utilization (%)
system.membus.respLayer2.occupancy             941750                       # Layer occupancy (ticks)
system.membus.respLayer2.utilization              0.2                       # Layer utilization (%)
system.voltage_domain.voltage                       1                       # Voltage in Volts

---------- End Simulation Statistics   ----------
