
---------- Begin Simulation Statistics ----------
final_tick                               160446308000                       # Number of ticks from beginning of simulation (restored from checkpoints and never reset)
host_inst_rate                                 397549                       # Simulator instruction rate (inst/s)
host_mem_usage                                 669852                       # Number of bytes of host memory used
host_op_rate                                   398329                       # Simulator op (including micro ops) rate (op/s)
host_seconds                                   251.54                       # Real time elapsed on the host
host_tick_rate                              637851653                       # Simulator tick rate (ticks/s)
sim_freq                                 1000000000000                       # Frequency of simulated ticks
sim_insts                                   100000000                       # Number of instructions simulated
sim_ops                                     100196363                       # Number of ops (including micro ops) simulated
sim_seconds                                  0.160446                       # Number of seconds simulated
sim_ticks                                160446308000                       # Number of ticks simulated
system.cpu.committedInsts                   100000000                       # Number of instructions committed
system.cpu.committedOps                     100196363                       # Number of ops (including micro ops) committed
system.cpu.cpi                               1.604463                       # CPI: cycles per instruction
system.cpu.discardedOps                        191199                       # Number of ops (including micro ops) which were discarded before commit
system.cpu.idleCycles                        27828666                       # Total number of cycles that the object has spent stopped
system.cpu.ipc                               0.623261                       # IPC: instructions per cycle
system.cpu.numCycles                        160446308                       # number of cpu cycles simulated
system.cpu.numFetchSuspends                         0                       # Number of times Execute suspended instruction fetching
system.cpu.numWorkItemsCompleted                    0                       # number of work items this cpu completed
system.cpu.numWorkItemsStarted                      0                       # number of work items this cpu started
system.cpu.op_class_0::No_OpClass                   0      0.00%      0.00% # Class of committed instruction
system.cpu.op_class_0::IntAlu                46526151     46.43%     46.43% # Class of committed instruction
system.cpu.op_class_0::IntMult                  20720      0.02%     46.46% # Class of committed instruction
system.cpu.op_class_0::IntDiv                       0      0.00%     46.46% # Class of committed instruction
system.cpu.op_class_0::FloatAdd                     0      0.00%     46.46% # Class of committed instruction
system.cpu.op_class_0::FloatCmp                     0      0.00%     46.46% # Class of committed instruction
system.cpu.op_class_0::FloatCvt                     0      0.00%     46.46% # Class of committed instruction
system.cpu.op_class_0::FloatMult                    0      0.00%     46.46% # Class of committed instruction
system.cpu.op_class_0::FloatMultAcc                 0      0.00%     46.46% # Class of committed instruction
system.cpu.op_class_0::FloatDiv                     0      0.00%     46.46% # Class of committed instruction
system.cpu.op_class_0::FloatMisc                    0      0.00%     46.46% # Class of committed instruction
system.cpu.op_class_0::FloatSqrt                    0      0.00%     46.46% # Class of committed instruction
system.cpu.op_class_0::SimdAdd                      0      0.00%     46.46% # Class of committed instruction
system.cpu.op_class_0::SimdAddAcc                   0      0.00%     46.46% # Class of committed instruction
system.cpu.op_class_0::SimdAlu                      0      0.00%     46.46% # Class of committed instruction
system.cpu.op_class_0::SimdCmp                      0      0.00%     46.46% # Class of committed instruction
system.cpu.op_class_0::SimdCvt                      0      0.00%     46.46% # Class of committed instruction
system.cpu.op_class_0::SimdMisc                     0      0.00%     46.46% # Class of committed instruction
system.cpu.op_class_0::SimdMult                     0      0.00%     46.46% # Class of committed instruction
system.cpu.op_class_0::SimdMultAcc                  0      0.00%     46.46% # Class of committed instruction
system.cpu.op_class_0::SimdShift                    0      0.00%     46.46% # Class of committed instruction
system.cpu.op_class_0::SimdShiftAcc                 0      0.00%     46.46% # Class of committed instruction
system.cpu.op_class_0::SimdDiv                      0      0.00%     46.46% # Class of committed instruction
system.cpu.op_class_0::SimdSqrt                     0      0.00%     46.46% # Class of committed instruction
system.cpu.op_class_0::SimdFloatAdd                 0      0.00%     46.46% # Class of committed instruction
system.cpu.op_class_0::SimdFloatAlu                 0      0.00%     46.46% # Class of committed instruction
system.cpu.op_class_0::SimdFloatCmp                 0      0.00%     46.46% # Class of committed instruction
system.cpu.op_class_0::SimdFloatCvt                 0      0.00%     46.46% # Class of committed instruction
system.cpu.op_class_0::SimdFloatDiv                 0      0.00%     46.46% # Class of committed instruction
system.cpu.op_class_0::SimdFloatMisc               18      0.00%     46.46% # Class of committed instruction
system.cpu.op_class_0::SimdFloatMult                0      0.00%     46.46% # Class of committed instruction
system.cpu.op_class_0::SimdFloatMultAcc             0      0.00%     46.46% # Class of committed instruction
system.cpu.op_class_0::SimdFloatSqrt                0      0.00%     46.46% # Class of committed instruction
system.cpu.op_class_0::SimdReduceAdd                0      0.00%     46.46% # Class of committed instruction
system.cpu.op_class_0::SimdReduceAlu                0      0.00%     46.46% # Class of committed instruction
system.cpu.op_class_0::SimdReduceCmp                0      0.00%     46.46% # Class of committed instruction
system.cpu.op_class_0::SimdFloatReduceAdd            0      0.00%     46.46% # Class of committed instruction
system.cpu.op_class_0::SimdFloatReduceCmp            0      0.00%     46.46% # Class of committed instruction
system.cpu.op_class_0::SimdAes                      0      0.00%     46.46% # Class of committed instruction
system.cpu.op_class_0::SimdAesMix                   0      0.00%     46.46% # Class of committed instruction
system.cpu.op_class_0::SimdSha1Hash                 0      0.00%     46.46% # Class of committed instruction
system.cpu.op_class_0::SimdSha1Hash2                0      0.00%     46.46% # Class of committed instruction
system.cpu.op_class_0::SimdSha256Hash               0      0.00%     46.46% # Class of committed instruction
system.cpu.op_class_0::SimdSha256Hash2              0      0.00%     46.46% # Class of committed instruction
system.cpu.op_class_0::SimdShaSigma2                0      0.00%     46.46% # Class of committed instruction
system.cpu.op_class_0::SimdShaSigma3                0      0.00%     46.46% # Class of committed instruction
system.cpu.op_class_0::SimdPredAlu                  0      0.00%     46.46% # Class of committed instruction
system.cpu.op_class_0::MemRead               42691081     42.61%     89.06% # Class of committed instruction
system.cpu.op_class_0::MemWrite              10958393     10.94%    100.00% # Class of committed instruction
system.cpu.op_class_0::FloatMemRead                 0      0.00%    100.00% # Class of committed instruction
system.cpu.op_class_0::FloatMemWrite                0      0.00%    100.00% # Class of committed instruction
system.cpu.op_class_0::IprAccess                    0      0.00%    100.00% # Class of committed instruction
system.cpu.op_class_0::InstPrefetch                 0      0.00%    100.00% # Class of committed instruction
system.cpu.op_class_0::total                100196363                       # Class of committed instruction
system.cpu.tickCycles                       132617642                       # Number of cycles that the object actually ticked
system.cpu.workload.numSyscalls                    84                       # Number of system calls
system.membus.snoop_filter.hit_multi_requests            0                       # Number of requests hitting in the snoop filter with multiple (>1) holders of the requested data.
system.membus.snoop_filter.hit_multi_snoops            0                       # Number of snoops hitting in the snoop filter with multiple (>1) holders of the requested data.
system.membus.snoop_filter.hit_single_requests       168733                       # Number of requests hitting in the snoop filter with a single holder of the requested data.
system.membus.snoop_filter.hit_single_snoops            0                       # Number of snoops hitting in the snoop filter with a single holder of the requested data.
system.membus.snoop_filter.tot_requests        370565                       # Total number of requests made to the snoop filter.
system.membus.snoop_filter.tot_snoops               0                       # Total number of snoops made to the snoop filter.
system.tol2bus.snoop_filter.hit_multi_requests          115                       # Number of requests hitting in the snoop filter with multiple (>1) holders of the requested data.
system.tol2bus.snoop_filter.hit_multi_snoops            0                       # Number of snoops hitting in the snoop filter with multiple (>1) holders of the requested data.
system.tol2bus.snoop_filter.hit_single_requests       682194                       # Number of requests hitting in the snoop filter with a single holder of the requested data.
system.tol2bus.snoop_filter.hit_single_snoops          468                       # Number of snoops hitting in the snoop filter with a single holder of the requested data.
system.tol2bus.snoop_filter.tot_requests      1365853                       # Total number of requests made to the snoop filter.
system.tol2bus.snoop_filter.tot_snoops            468                       # Total number of snoops made to the snoop filter.
system.clk_domain.clock                          1000                       # Clock period in ticks
system.cpu.branchPred.lookups                 4485310                       # Number of BP lookups
system.cpu.branchPred.condPredicted           3734799                       # Number of conditional branches predicted
system.cpu.branchPred.condIncorrect             80996                       # Number of conditional branches incorrect
system.cpu.branchPred.BTBLookups              2103907                       # Number of BTB lookups
system.cpu.branchPred.BTBHits                 2101867                       # Number of BTB hits
system.cpu.branchPred.BTBHitPct             99.903038                       # BTB Hit Percentage
system.cpu.branchPred.RASUsed                   65383                       # Number of times the RAS was used to get a target.
system.cpu.branchPred.RASIncorrect                 14                       # Number of incorrect RAS predictions.
system.cpu.branchPred.indirectLookups             690                       # Number of indirect predictor lookups.
system.cpu.branchPred.indirectHits                289                       # Number of indirect target hits.
system.cpu.branchPred.indirectMisses              401                       # Number of indirect misses.
system.cpu.branchPred.indirectMispredicted          169                       # Number of mispredicted indirect branches.
system.cpu.dcache.demand_hits::.cpu.data     51332496                       # number of demand (read+write) hits
system.cpu.dcache.demand_hits::total         51332496                       # number of demand (read+write) hits
system.cpu.dcache.overall_hits::.cpu.data     51333001                       # number of overall hits
system.cpu.dcache.overall_hits::total        51333001                       # number of overall hits
system.cpu.dcache.demand_misses::.cpu.data       727525                       # number of demand (read+write) misses
system.cpu.dcache.demand_misses::total         727525                       # number of demand (read+write) misses
system.cpu.dcache.overall_misses::.cpu.data       735437                       # number of overall misses
system.cpu.dcache.overall_misses::total        735437                       # number of overall misses
system.cpu.dcache.demand_miss_latency::.cpu.data  35213602000                       # number of demand (read+write) miss cycles
system.cpu.dcache.demand_miss_latency::total  35213602000                       # number of demand (read+write) miss cycles
system.cpu.dcache.overall_miss_latency::.cpu.data  35213602000                       # number of overall miss cycles
system.cpu.dcache.overall_miss_latency::total  35213602000                       # number of overall miss cycles
system.cpu.dcache.demand_accesses::.cpu.data     52060021                       # number of demand (read+write) accesses
system.cpu.dcache.demand_accesses::total     52060021                       # number of demand (read+write) accesses
system.cpu.dcache.overall_accesses::.cpu.data     52068438                       # number of overall (read+write) accesses
system.cpu.dcache.overall_accesses::total     52068438                       # number of overall (read+write) accesses
system.cpu.dcache.demand_miss_rate::.cpu.data     0.013975                       # miss rate for demand accesses
system.cpu.dcache.demand_miss_rate::total     0.013975                       # miss rate for demand accesses
system.cpu.dcache.overall_miss_rate::.cpu.data     0.014124                       # miss rate for overall accesses
system.cpu.dcache.overall_miss_rate::total     0.014124                       # miss rate for overall accesses
system.cpu.dcache.demand_avg_miss_latency::.cpu.data 48401.913336                       # average overall miss latency
system.cpu.dcache.demand_avg_miss_latency::total 48401.913336                       # average overall miss latency
system.cpu.dcache.overall_avg_miss_latency::.cpu.data 47881.194446                       # average overall miss latency
system.cpu.dcache.overall_avg_miss_latency::total 47881.194446                       # average overall miss latency
system.cpu.dcache.blocked_cycles::no_mshrs        98982                       # number of cycles access was blocked
system.cpu.dcache.blocked_cycles::no_targets            0                       # number of cycles access was blocked
system.cpu.dcache.blocked::no_mshrs              3333                       # number of cycles access was blocked
system.cpu.dcache.blocked::no_targets               0                       # number of cycles access was blocked
system.cpu.dcache.avg_blocked_cycles::no_mshrs    29.697570                       # average number of cycles each access was blocked
system.cpu.dcache.avg_blocked_cycles::no_targets          nan                       # average number of cycles each access was blocked
system.cpu.dcache.writebacks::.writebacks       606170                       # number of writebacks
system.cpu.dcache.writebacks::total            606170                       # number of writebacks
system.cpu.dcache.demand_mshr_hits::.cpu.data        52522                       # number of demand (read+write) MSHR hits
system.cpu.dcache.demand_mshr_hits::total        52522                       # number of demand (read+write) MSHR hits
system.cpu.dcache.overall_mshr_hits::.cpu.data        52522                       # number of overall MSHR hits
system.cpu.dcache.overall_mshr_hits::total        52522                       # number of overall MSHR hits
system.cpu.dcache.demand_mshr_misses::.cpu.data       675003                       # number of demand (read+write) MSHR misses
system.cpu.dcache.demand_mshr_misses::total       675003                       # number of demand (read+write) MSHR misses
system.cpu.dcache.overall_mshr_misses::.cpu.data       682910                       # number of overall MSHR misses
system.cpu.dcache.overall_mshr_misses::total       682910                       # number of overall MSHR misses
system.cpu.dcache.demand_mshr_miss_latency::.cpu.data  32271597000                       # number of demand (read+write) MSHR miss cycles
system.cpu.dcache.demand_mshr_miss_latency::total  32271597000                       # number of demand (read+write) MSHR miss cycles
system.cpu.dcache.overall_mshr_miss_latency::.cpu.data  33099762999                       # number of overall MSHR miss cycles
system.cpu.dcache.overall_mshr_miss_latency::total  33099762999                       # number of overall MSHR miss cycles
system.cpu.dcache.demand_mshr_miss_rate::.cpu.data     0.012966                       # mshr miss rate for demand accesses
system.cpu.dcache.demand_mshr_miss_rate::total     0.012966                       # mshr miss rate for demand accesses
system.cpu.dcache.overall_mshr_miss_rate::.cpu.data     0.013116                       # mshr miss rate for overall accesses
system.cpu.dcache.overall_mshr_miss_rate::total     0.013116                       # mshr miss rate for overall accesses
system.cpu.dcache.demand_avg_mshr_miss_latency::.cpu.data 47809.560846                       # average overall mshr miss latency
system.cpu.dcache.demand_avg_mshr_miss_latency::total 47809.560846                       # average overall mshr miss latency
system.cpu.dcache.overall_avg_mshr_miss_latency::.cpu.data 48468.704513                       # average overall mshr miss latency
system.cpu.dcache.overall_avg_mshr_miss_latency::total 48468.704513                       # average overall mshr miss latency
system.cpu.dcache.replacements                 681886                       # number of replacements
system.cpu.dcache.ReadReq_hits::.cpu.data     40722145                       # number of ReadReq hits
system.cpu.dcache.ReadReq_hits::total        40722145                       # number of ReadReq hits
system.cpu.dcache.ReadReq_misses::.cpu.data       388615                       # number of ReadReq misses
system.cpu.dcache.ReadReq_misses::total        388615                       # number of ReadReq misses
system.cpu.dcache.ReadReq_miss_latency::.cpu.data  14603408000                       # number of ReadReq miss cycles
system.cpu.dcache.ReadReq_miss_latency::total  14603408000                       # number of ReadReq miss cycles
system.cpu.dcache.ReadReq_accesses::.cpu.data     41110760                       # number of ReadReq accesses(hits+misses)
system.cpu.dcache.ReadReq_accesses::total     41110760                       # number of ReadReq accesses(hits+misses)
system.cpu.dcache.ReadReq_miss_rate::.cpu.data     0.009453                       # miss rate for ReadReq accesses
system.cpu.dcache.ReadReq_miss_rate::total     0.009453                       # miss rate for ReadReq accesses
system.cpu.dcache.ReadReq_avg_miss_latency::.cpu.data 37578.086281                       # average ReadReq miss latency
system.cpu.dcache.ReadReq_avg_miss_latency::total 37578.086281                       # average ReadReq miss latency
system.cpu.dcache.ReadReq_mshr_hits::.cpu.data          454                       # number of ReadReq MSHR hits
system.cpu.dcache.ReadReq_mshr_hits::total          454                       # number of ReadReq MSHR hits
system.cpu.dcache.ReadReq_mshr_misses::.cpu.data       388161                       # number of ReadReq MSHR misses
system.cpu.dcache.ReadReq_mshr_misses::total       388161                       # number of ReadReq MSHR misses
system.cpu.dcache.ReadReq_mshr_miss_latency::.cpu.data  13808719000                       # number of ReadReq MSHR miss cycles
system.cpu.dcache.ReadReq_mshr_miss_latency::total  13808719000                       # number of ReadReq MSHR miss cycles
system.cpu.dcache.ReadReq_mshr_miss_rate::.cpu.data     0.009442                       # mshr miss rate for ReadReq accesses
system.cpu.dcache.ReadReq_mshr_miss_rate::total     0.009442                       # mshr miss rate for ReadReq accesses
system.cpu.dcache.ReadReq_avg_mshr_miss_latency::.cpu.data 35574.720284                       # average ReadReq mshr miss latency
system.cpu.dcache.ReadReq_avg_mshr_miss_latency::total 35574.720284                       # average ReadReq mshr miss latency
system.cpu.dcache.WriteReq_hits::.cpu.data     10610351                       # number of WriteReq hits
system.cpu.dcache.WriteReq_hits::total       10610351                       # number of WriteReq hits
system.cpu.dcache.WriteReq_misses::.cpu.data       338910                       # number of WriteReq misses
system.cpu.dcache.WriteReq_misses::total       338910                       # number of WriteReq misses
system.cpu.dcache.WriteReq_miss_latency::.cpu.data  20610194000                       # number of WriteReq miss cycles
system.cpu.dcache.WriteReq_miss_latency::total  20610194000                       # number of WriteReq miss cycles
system.cpu.dcache.WriteReq_accesses::.cpu.data     10949261                       # number of WriteReq accesses(hits+misses)
system.cpu.dcache.WriteReq_accesses::total     10949261                       # number of WriteReq accesses(hits+misses)
system.cpu.dcache.WriteReq_miss_rate::.cpu.data     0.030953                       # miss rate for WriteReq accesses
system.cpu.dcache.WriteReq_miss_rate::total     0.030953                       # miss rate for WriteReq accesses
system.cpu.dcache.WriteReq_avg_miss_latency::.cpu.data 60813.177540                       # average WriteReq miss latency
system.cpu.dcache.WriteReq_avg_miss_latency::total 60813.177540                       # average WriteReq miss latency
system.cpu.dcache.WriteReq_mshr_hits::.cpu.data        52068                       # number of WriteReq MSHR hits
system.cpu.dcache.WriteReq_mshr_hits::total        52068                       # number of WriteReq MSHR hits
system.cpu.dcache.WriteReq_mshr_misses::.cpu.data       286842                       # number of WriteReq MSHR misses
system.cpu.dcache.WriteReq_mshr_misses::total       286842                       # number of WriteReq MSHR misses
system.cpu.dcache.WriteReq_mshr_miss_latency::.cpu.data  18462878000                       # number of WriteReq MSHR miss cycles
system.cpu.dcache.WriteReq_mshr_miss_latency::total  18462878000                       # number of WriteReq MSHR miss cycles
system.cpu.dcache.WriteReq_mshr_miss_rate::.cpu.data     0.026197                       # mshr miss rate for WriteReq accesses
system.cpu.dcache.WriteReq_mshr_miss_rate::total     0.026197                       # mshr miss rate for WriteReq accesses
system.cpu.dcache.WriteReq_avg_mshr_miss_latency::.cpu.data 64366.020318                       # average WriteReq mshr miss latency
system.cpu.dcache.WriteReq_avg_mshr_miss_latency::total 64366.020318                       # average WriteReq mshr miss latency
system.cpu.dcache.SoftPFReq_hits::.cpu.data          505                       # number of SoftPFReq hits
system.cpu.dcache.SoftPFReq_hits::total           505                       # number of SoftPFReq hits
system.cpu.dcache.SoftPFReq_misses::.cpu.data         7912                       # number of SoftPFReq misses
system.cpu.dcache.SoftPFReq_misses::total         7912                       # number of SoftPFReq misses
system.cpu.dcache.SoftPFReq_accesses::.cpu.data         8417                       # number of SoftPFReq accesses(hits+misses)
system.cpu.dcache.SoftPFReq_accesses::total         8417                       # number of SoftPFReq accesses(hits+misses)
system.cpu.dcache.SoftPFReq_miss_rate::.cpu.data     0.940002                       # miss rate for SoftPFReq accesses
system.cpu.dcache.SoftPFReq_miss_rate::total     0.940002                       # miss rate for SoftPFReq accesses
system.cpu.dcache.SoftPFReq_mshr_misses::.cpu.data         7907                       # number of SoftPFReq MSHR misses
system.cpu.dcache.SoftPFReq_mshr_misses::total         7907                       # number of SoftPFReq MSHR misses
system.cpu.dcache.SoftPFReq_mshr_miss_latency::.cpu.data    828165999                       # number of SoftPFReq MSHR miss cycles
system.cpu.dcache.SoftPFReq_mshr_miss_latency::total    828165999                       # number of SoftPFReq MSHR miss cycles
system.cpu.dcache.SoftPFReq_mshr_miss_rate::.cpu.data     0.939408                       # mshr miss rate for SoftPFReq accesses
system.cpu.dcache.SoftPFReq_mshr_miss_rate::total     0.939408                       # mshr miss rate for SoftPFReq accesses
system.cpu.dcache.SoftPFReq_avg_mshr_miss_latency::.cpu.data 104738.332996                       # average SoftPFReq mshr miss latency
system.cpu.dcache.SoftPFReq_avg_mshr_miss_latency::total 104738.332996                       # average SoftPFReq mshr miss latency
system.cpu.dcache.LoadLockedReq_hits::.cpu.data           38                       # number of LoadLockedReq hits
system.cpu.dcache.LoadLockedReq_hits::total           38                       # number of LoadLockedReq hits
system.cpu.dcache.LoadLockedReq_accesses::.cpu.data           38                       # number of LoadLockedReq accesses(hits+misses)
system.cpu.dcache.LoadLockedReq_accesses::total           38                       # number of LoadLockedReq accesses(hits+misses)
system.cpu.dcache.StoreCondReq_hits::.cpu.data           38                       # number of StoreCondReq hits
system.cpu.dcache.StoreCondReq_hits::total           38                       # number of StoreCondReq hits
system.cpu.dcache.StoreCondReq_accesses::.cpu.data           38                       # number of StoreCondReq accesses(hits+misses)
system.cpu.dcache.StoreCondReq_accesses::total           38                       # number of StoreCondReq accesses(hits+misses)
system.cpu.dcache.power_state.pwrStateResidencyTicks::UNDEFINED 160446308000                       # Cumulative time (in ticks) in various power states
system.cpu.dcache.tags.tagsinuse          1012.597339                       # Cycle average of tags in use
system.cpu.dcache.tags.total_refs            52015987                       # Total number of references to valid blocks.
system.cpu.dcache.tags.sampled_refs            682910                       # Sample count of references to valid blocks.
system.cpu.dcache.tags.avg_refs             76.168144                       # Average number of references to valid blocks.
system.cpu.dcache.tags.warmup_cycle            223000                       # Cycle when the warmup percentage was hit.
system.cpu.dcache.tags.occ_blocks::.cpu.data  1012.597339                       # Average occupied blocks per requestor
system.cpu.dcache.tags.occ_percent::.cpu.data     0.988865                       # Average percentage of cache occupancy
system.cpu.dcache.tags.occ_percent::total     0.988865                       # Average percentage of cache occupancy
system.cpu.dcache.tags.occ_task_id_blocks::1024         1024                       # Occupied blocks per task id
system.cpu.dcache.tags.age_task_id_blocks_1024::0           95                       # Occupied blocks per task id
system.cpu.dcache.tags.age_task_id_blocks_1024::1          220                       # Occupied blocks per task id
system.cpu.dcache.tags.age_task_id_blocks_1024::2          690                       # Occupied blocks per task id
system.cpu.dcache.tags.age_task_id_blocks_1024::3           18                       # Occupied blocks per task id
system.cpu.dcache.tags.age_task_id_blocks_1024::4            1                       # Occupied blocks per task id
system.cpu.dcache.tags.occ_task_id_percent::1024            1                       # Percentage of cache occupancy per task id
system.cpu.dcache.tags.tag_accesses         104819938                       # Number of tag accesses
system.cpu.dcache.tags.data_accesses        104819938                       # Number of data accesses
system.cpu.dcache.tags.power_state.pwrStateResidencyTicks::UNDEFINED 160446308000                       # Cumulative time (in ticks) in various power states
system.cpu.dtb.instHits                             0                       # ITB inst hits
system.cpu.dtb.instMisses                           0                       # ITB inst misses
system.cpu.dtb.readHits                             0                       # DTB read hits
system.cpu.dtb.readMisses                           0                       # DTB read misses
system.cpu.dtb.writeHits                            0                       # DTB write hits
system.cpu.dtb.writeMisses                          0                       # DTB write misses
system.cpu.dtb.inserts                              0                       # Number of times an entry is inserted into the TLB
system.cpu.dtb.flushTlb                             0                       # Number of times complete TLB was flushed
system.cpu.dtb.flushTlbMva                          0                       # Number of times TLB was flushed by MVA
system.cpu.dtb.flushTlbMvaAsid                      0                       # Number of times TLB was flushed by MVA & ASID
system.cpu.dtb.flushTlbAsid                         0                       # Number of times TLB was flushed by ASID
system.cpu.dtb.flushedEntries                       0                       # Number of entries that have been flushed from TLB
system.cpu.dtb.alignFaults                          0                       # Number of TLB faults due to alignment restrictions
system.cpu.dtb.prefetchFaults                       0                       # Number of TLB faults due to prefetch
system.cpu.dtb.domainFaults                         0                       # Number of TLB faults due to domain restrictions
system.cpu.dtb.permsFaults                          0                       # Number of TLB faults due to permissions restrictions
system.cpu.dtb.readAccesses                         0                       # DTB read accesses
system.cpu.dtb.writeAccesses                        0                       # DTB write accesses
system.cpu.dtb.instAccesses                         0                       # ITB inst accesses
system.cpu.dtb.hits                                 0                       # Total TLB (inst and data) hits
system.cpu.dtb.misses                               0                       # Total TLB (inst and data) misses
system.cpu.dtb.accesses                             0                       # Total TLB (inst and data) accesses
system.cpu.dtb.stage2_mmu.stage2_tlb.instHits            0                       # ITB inst hits
system.cpu.dtb.stage2_mmu.stage2_tlb.instMisses            0                       # ITB inst misses
system.cpu.dtb.stage2_mmu.stage2_tlb.readHits            0                       # DTB read hits
system.cpu.dtb.stage2_mmu.stage2_tlb.readMisses            0                       # DTB read misses
system.cpu.dtb.stage2_mmu.stage2_tlb.writeHits            0                       # DTB write hits
system.cpu.dtb.stage2_mmu.stage2_tlb.writeMisses            0                       # DTB write misses
system.cpu.dtb.stage2_mmu.stage2_tlb.inserts            0                       # Number of times an entry is inserted into the TLB
system.cpu.dtb.stage2_mmu.stage2_tlb.flushTlb            0                       # Number of times complete TLB was flushed
system.cpu.dtb.stage2_mmu.stage2_tlb.flushTlbMva            0                       # Number of times TLB was flushed by MVA
system.cpu.dtb.stage2_mmu.stage2_tlb.flushTlbMvaAsid            0                       # Number of times TLB was flushed by MVA & ASID
system.cpu.dtb.stage2_mmu.stage2_tlb.flushTlbAsid            0                       # Number of times TLB was flushed by ASID
system.cpu.dtb.stage2_mmu.stage2_tlb.flushedEntries            0                       # Number of entries that have been flushed from TLB
system.cpu.dtb.stage2_mmu.stage2_tlb.alignFaults            0                       # Number of TLB faults due to alignment restrictions
system.cpu.dtb.stage2_mmu.stage2_tlb.prefetchFaults            0                       # Number of TLB faults due to prefetch
system.cpu.dtb.stage2_mmu.stage2_tlb.domainFaults            0                       # Number of TLB faults due to domain restrictions
system.cpu.dtb.stage2_mmu.stage2_tlb.permsFaults            0                       # Number of TLB faults due to permissions restrictions
system.cpu.dtb.stage2_mmu.stage2_tlb.readAccesses            0                       # DTB read accesses
system.cpu.dtb.stage2_mmu.stage2_tlb.writeAccesses            0                       # DTB write accesses
system.cpu.dtb.stage2_mmu.stage2_tlb.instAccesses            0                       # ITB inst accesses
system.cpu.dtb.stage2_mmu.stage2_tlb.hits            0                       # Total TLB (inst and data) hits
system.cpu.dtb.stage2_mmu.stage2_tlb.misses            0                       # Total TLB (inst and data) misses
system.cpu.dtb.stage2_mmu.stage2_tlb.accesses            0                       # Total TLB (inst and data) accesses
system.cpu.dtb.stage2_mmu.stage2_tlb.walker.walks            0                       # Table walker walks requested
system.cpu.dtb.stage2_mmu.stage2_tlb.walker.requestOrigin_Requested::Data            0                       # Table walker requests started/completed, data/inst
system.cpu.dtb.stage2_mmu.stage2_tlb.walker.requestOrigin_Requested::Inst            0                       # Table walker requests started/completed, data/inst
system.cpu.dtb.stage2_mmu.stage2_tlb.walker.requestOrigin_Requested::total            0                       # Table walker requests started/completed, data/inst
system.cpu.dtb.stage2_mmu.stage2_tlb.walker.requestOrigin_Completed::Data            0                       # Table walker requests started/completed, data/inst
system.cpu.dtb.stage2_mmu.stage2_tlb.walker.requestOrigin_Completed::Inst            0                       # Table walker requests started/completed, data/inst
system.cpu.dtb.stage2_mmu.stage2_tlb.walker.requestOrigin_Completed::total            0                       # Table walker requests started/completed, data/inst
system.cpu.dtb.stage2_mmu.stage2_tlb.walker.requestOrigin::total            0                       # Table walker requests started/completed, data/inst
system.cpu.dtb.stage2_mmu.stage2_tlb.walker.power_state.pwrStateResidencyTicks::UNDEFINED 160446308000                       # Cumulative time (in ticks) in various power states
system.cpu.dtb.walker.walks                         0                       # Table walker walks requested
system.cpu.dtb.walker.requestOrigin_Requested::Data            0                       # Table walker requests started/completed, data/inst
system.cpu.dtb.walker.requestOrigin_Requested::Inst            0                       # Table walker requests started/completed, data/inst
system.cpu.dtb.walker.requestOrigin_Requested::total            0                       # Table walker requests started/completed, data/inst
system.cpu.dtb.walker.requestOrigin_Completed::Data            0                       # Table walker requests started/completed, data/inst
system.cpu.dtb.walker.requestOrigin_Completed::Inst            0                       # Table walker requests started/completed, data/inst
system.cpu.dtb.walker.requestOrigin_Completed::total            0                       # Table walker requests started/completed, data/inst
system.cpu.dtb.walker.requestOrigin::total            0                       # Table walker requests started/completed, data/inst
system.cpu.dtb.walker.power_state.pwrStateResidencyTicks::UNDEFINED 160446308000                       # Cumulative time (in ticks) in various power states
system.cpu.fetch2.intInstructions            42684768                       # Number of integer instructions successfully decoded
system.cpu.fetch2.fpInstructions                    0                       # Number of floating point instructions successfully decoded
system.cpu.fetch2.vecInstructions                   0                       # Number of SIMD instructions successfully decoded
system.cpu.fetch2.loadInstructions           43474064                       # Number of memory load instructions successfully decoded
system.cpu.fetch2.storeInstructions          11025762                       # Number of memory store instructions successfully decoded
system.cpu.fetch2.amoInstructions                   0                       # Number of memory atomic instructions successfully decoded
system.cpu.icache.demand_hits::.cpu.inst      9700131                       # number of demand (read+write) hits
system.cpu.icache.demand_hits::total          9700131                       # number of demand (read+write) hits
system.cpu.icache.overall_hits::.cpu.inst      9700131                       # number of overall hits
system.cpu.icache.overall_hits::total         9700131                       # number of overall hits
system.cpu.icache.demand_misses::.cpu.inst          751                       # number of demand (read+write) misses
system.cpu.icache.demand_misses::total            751                       # number of demand (read+write) misses
system.cpu.icache.overall_misses::.cpu.inst          751                       # number of overall misses
system.cpu.icache.overall_misses::total           751                       # number of overall misses
system.cpu.icache.demand_miss_latency::.cpu.inst     71841000                       # number of demand (read+write) miss cycles
system.cpu.icache.demand_miss_latency::total     71841000                       # number of demand (read+write) miss cycles
system.cpu.icache.overall_miss_latency::.cpu.inst     71841000                       # number of overall miss cycles
system.cpu.icache.overall_miss_latency::total     71841000                       # number of overall miss cycles
system.cpu.icache.demand_accesses::.cpu.inst      9700882                       # number of demand (read+write) accesses
system.cpu.icache.demand_accesses::total      9700882                       # number of demand (read+write) accesses
system.cpu.icache.overall_accesses::.cpu.inst      9700882                       # number of overall (read+write) accesses
system.cpu.icache.overall_accesses::total      9700882                       # number of overall (read+write) accesses
system.cpu.icache.demand_miss_rate::.cpu.inst     0.000077                       # miss rate for demand accesses
system.cpu.icache.demand_miss_rate::total     0.000077                       # miss rate for demand accesses
system.cpu.icache.overall_miss_rate::.cpu.inst     0.000077                       # miss rate for overall accesses
system.cpu.icache.overall_miss_rate::total     0.000077                       # miss rate for overall accesses
system.cpu.icache.demand_avg_miss_latency::.cpu.inst 95660.452730                       # average overall miss latency
system.cpu.icache.demand_avg_miss_latency::total 95660.452730                       # average overall miss latency
system.cpu.icache.overall_avg_miss_latency::.cpu.inst 95660.452730                       # average overall miss latency
system.cpu.icache.overall_avg_miss_latency::total 95660.452730                       # average overall miss latency
system.cpu.icache.blocked_cycles::no_mshrs            0                       # number of cycles access was blocked
system.cpu.icache.blocked_cycles::no_targets            0                       # number of cycles access was blocked
system.cpu.icache.blocked::no_mshrs                 0                       # number of cycles access was blocked
system.cpu.icache.blocked::no_targets               0                       # number of cycles access was blocked
system.cpu.icache.avg_blocked_cycles::no_mshrs          nan                       # average number of cycles each access was blocked
system.cpu.icache.avg_blocked_cycles::no_targets          nan                       # average number of cycles each access was blocked
system.cpu.icache.writebacks::.writebacks          306                       # number of writebacks
system.cpu.icache.writebacks::total               306                       # number of writebacks
system.cpu.icache.demand_mshr_misses::.cpu.inst          751                       # number of demand (read+write) MSHR misses
system.cpu.icache.demand_mshr_misses::total          751                       # number of demand (read+write) MSHR misses
system.cpu.icache.overall_mshr_misses::.cpu.inst          751                       # number of overall MSHR misses
system.cpu.icache.overall_mshr_misses::total          751                       # number of overall MSHR misses
system.cpu.icache.demand_mshr_miss_latency::.cpu.inst     70339000                       # number of demand (read+write) MSHR miss cycles
system.cpu.icache.demand_mshr_miss_latency::total     70339000                       # number of demand (read+write) MSHR miss cycles
system.cpu.icache.overall_mshr_miss_latency::.cpu.inst     70339000                       # number of overall MSHR miss cycles
system.cpu.icache.overall_mshr_miss_latency::total     70339000                       # number of overall MSHR miss cycles
system.cpu.icache.demand_mshr_miss_rate::.cpu.inst     0.000077                       # mshr miss rate for demand accesses
system.cpu.icache.demand_mshr_miss_rate::total     0.000077                       # mshr miss rate for demand accesses
system.cpu.icache.overall_mshr_miss_rate::.cpu.inst     0.000077                       # mshr miss rate for overall accesses
system.cpu.icache.overall_mshr_miss_rate::total     0.000077                       # mshr miss rate for overall accesses
system.cpu.icache.demand_avg_mshr_miss_latency::.cpu.inst 93660.452730                       # average overall mshr miss latency
system.cpu.icache.demand_avg_mshr_miss_latency::total 93660.452730                       # average overall mshr miss latency
system.cpu.icache.overall_avg_mshr_miss_latency::.cpu.inst 93660.452730                       # average overall mshr miss latency
system.cpu.icache.overall_avg_mshr_miss_latency::total 93660.452730                       # average overall mshr miss latency
system.cpu.icache.replacements                    306                       # number of replacements
system.cpu.icache.ReadReq_hits::.cpu.inst      9700131                       # number of ReadReq hits
system.cpu.icache.ReadReq_hits::total         9700131                       # number of ReadReq hits
system.cpu.icache.ReadReq_misses::.cpu.inst          751                       # number of ReadReq misses
system.cpu.icache.ReadReq_misses::total           751                       # number of ReadReq misses
system.cpu.icache.ReadReq_miss_latency::.cpu.inst     71841000                       # number of ReadReq miss cycles
system.cpu.icache.ReadReq_miss_latency::total     71841000                       # number of ReadReq miss cycles
system.cpu.icache.ReadReq_accesses::.cpu.inst      9700882                       # number of ReadReq accesses(hits+misses)
system.cpu.icache.ReadReq_accesses::total      9700882                       # number of ReadReq accesses(hits+misses)
system.cpu.icache.ReadReq_miss_rate::.cpu.inst     0.000077                       # miss rate for ReadReq accesses
system.cpu.icache.ReadReq_miss_rate::total     0.000077                       # miss rate for ReadReq accesses
system.cpu.icache.ReadReq_avg_miss_latency::.cpu.inst 95660.452730                       # average ReadReq miss latency
system.cpu.icache.ReadReq_avg_miss_latency::total 95660.452730                       # average ReadReq miss latency
system.cpu.icache.ReadReq_mshr_misses::.cpu.inst          751                       # number of ReadReq MSHR misses
system.cpu.icache.ReadReq_mshr_misses::total          751                       # number of ReadReq MSHR misses
system.cpu.icache.ReadReq_mshr_miss_latency::.cpu.inst     70339000                       # number of ReadReq MSHR miss cycles
system.cpu.icache.ReadReq_mshr_miss_latency::total     70339000                       # number of ReadReq MSHR miss cycles
system.cpu.icache.ReadReq_mshr_miss_rate::.cpu.inst     0.000077                       # mshr miss rate for ReadReq accesses
system.cpu.icache.ReadReq_mshr_miss_rate::total     0.000077                       # mshr miss rate for ReadReq accesses
system.cpu.icache.ReadReq_avg_mshr_miss_latency::.cpu.inst 93660.452730                       # average ReadReq mshr miss latency
system.cpu.icache.ReadReq_avg_mshr_miss_latency::total 93660.452730                       # average ReadReq mshr miss latency
system.cpu.icache.power_state.pwrStateResidencyTicks::UNDEFINED 160446308000                       # Cumulative time (in ticks) in various power states
system.cpu.icache.tags.tagsinuse           362.279630                       # Cycle average of tags in use
system.cpu.icache.tags.total_refs             9700882                       # Total number of references to valid blocks.
system.cpu.icache.tags.sampled_refs               751                       # Sample count of references to valid blocks.
system.cpu.icache.tags.avg_refs          12917.286285                       # Average number of references to valid blocks.
system.cpu.icache.tags.warmup_cycle            108000                       # Cycle when the warmup percentage was hit.
system.cpu.icache.tags.occ_blocks::.cpu.inst   362.279630                       # Average occupied blocks per requestor
system.cpu.icache.tags.occ_percent::.cpu.inst     0.707577                       # Average percentage of cache occupancy
system.cpu.icache.tags.occ_percent::total     0.707577                       # Average percentage of cache occupancy
system.cpu.icache.tags.occ_task_id_blocks::1024          445                       # Occupied blocks per task id
system.cpu.icache.tags.age_task_id_blocks_1024::4          445                       # Occupied blocks per task id
system.cpu.icache.tags.occ_task_id_percent::1024     0.869141                       # Percentage of cache occupancy per task id
system.cpu.icache.tags.tag_accesses          19402515                       # Number of tag accesses
system.cpu.icache.tags.data_accesses         19402515                       # Number of data accesses
system.cpu.icache.tags.power_state.pwrStateResidencyTicks::UNDEFINED 160446308000                       # Cumulative time (in ticks) in various power states
system.cpu.itb.instHits                             0                       # ITB inst hits
system.cpu.itb.instMisses                           0                       # ITB inst misses
system.cpu.itb.readHits                             0                       # DTB read hits
system.cpu.itb.readMisses                           0                       # DTB read misses
system.cpu.itb.writeHits                            0                       # DTB write hits
system.cpu.itb.writeMisses                          0                       # DTB write misses
system.cpu.itb.inserts                              0                       # Number of times an entry is inserted into the TLB
system.cpu.itb.flushTlb                             0                       # Number of times complete TLB was flushed
system.cpu.itb.flushTlbMva                          0                       # Number of times TLB was flushed by MVA
system.cpu.itb.flushTlbMvaAsid                      0                       # Number of times TLB was flushed by MVA & ASID
system.cpu.itb.flushTlbAsid                         0                       # Number of times TLB was flushed by ASID
system.cpu.itb.flushedEntries                       0                       # Number of entries that have been flushed from TLB
system.cpu.itb.alignFaults                          0                       # Number of TLB faults due to alignment restrictions
system.cpu.itb.prefetchFaults                       0                       # Number of TLB faults due to prefetch
system.cpu.itb.domainFaults                         0                       # Number of TLB faults due to domain restrictions
system.cpu.itb.permsFaults                          0                       # Number of TLB faults due to permissions restrictions
system.cpu.itb.readAccesses                         0                       # DTB read accesses
system.cpu.itb.writeAccesses                        0                       # DTB write accesses
system.cpu.itb.instAccesses                         0                       # ITB inst accesses
system.cpu.itb.hits                                 0                       # Total TLB (inst and data) hits
system.cpu.itb.misses                               0                       # Total TLB (inst and data) misses
system.cpu.itb.accesses                             0                       # Total TLB (inst and data) accesses
system.cpu.itb.stage2_mmu.stage2_tlb.instHits            0                       # ITB inst hits
system.cpu.itb.stage2_mmu.stage2_tlb.instMisses            0                       # ITB inst misses
system.cpu.itb.stage2_mmu.stage2_tlb.readHits            0                       # DTB read hits
system.cpu.itb.stage2_mmu.stage2_tlb.readMisses            0                       # DTB read misses
system.cpu.itb.stage2_mmu.stage2_tlb.writeHits            0                       # DTB write hits
system.cpu.itb.stage2_mmu.stage2_tlb.writeMisses            0                       # DTB write misses
system.cpu.itb.stage2_mmu.stage2_tlb.inserts            0                       # Number of times an entry is inserted into the TLB
system.cpu.itb.stage2_mmu.stage2_tlb.flushTlb            0                       # Number of times complete TLB was flushed
system.cpu.itb.stage2_mmu.stage2_tlb.flushTlbMva            0                       # Number of times TLB was flushed by MVA
system.cpu.itb.stage2_mmu.stage2_tlb.flushTlbMvaAsid            0                       # Number of times TLB was flushed by MVA & ASID
system.cpu.itb.stage2_mmu.stage2_tlb.flushTlbAsid            0                       # Number of times TLB was flushed by ASID
system.cpu.itb.stage2_mmu.stage2_tlb.flushedEntries            0                       # Number of entries that have been flushed from TLB
system.cpu.itb.stage2_mmu.stage2_tlb.alignFaults            0                       # Number of TLB faults due to alignment restrictions
system.cpu.itb.stage2_mmu.stage2_tlb.prefetchFaults            0                       # Number of TLB faults due to prefetch
system.cpu.itb.stage2_mmu.stage2_tlb.domainFaults            0                       # Number of TLB faults due to domain restrictions
system.cpu.itb.stage2_mmu.stage2_tlb.permsFaults            0                       # Number of TLB faults due to permissions restrictions
system.cpu.itb.stage2_mmu.stage2_tlb.readAccesses            0                       # DTB read accesses
system.cpu.itb.stage2_mmu.stage2_tlb.writeAccesses            0                       # DTB write accesses
system.cpu.itb.stage2_mmu.stage2_tlb.instAccesses            0                       # ITB inst accesses
system.cpu.itb.stage2_mmu.stage2_tlb.hits            0                       # Total TLB (inst and data) hits
system.cpu.itb.stage2_mmu.stage2_tlb.misses            0                       # Total TLB (inst and data) misses
system.cpu.itb.stage2_mmu.stage2_tlb.accesses            0                       # Total TLB (inst and data) accesses
system.cpu.itb.stage2_mmu.stage2_tlb.walker.walks            0                       # Table walker walks requested
system.cpu.itb.stage2_mmu.stage2_tlb.walker.requestOrigin_Requested::Data            0                       # Table walker requests started/completed, data/inst
system.cpu.itb.stage2_mmu.stage2_tlb.walker.requestOrigin_Requested::Inst            0                       # Table walker requests started/completed, data/inst
system.cpu.itb.stage2_mmu.stage2_tlb.walker.requestOrigin_Requested::total            0                       # Table walker requests started/completed, data/inst
system.cpu.itb.stage2_mmu.stage2_tlb.walker.requestOrigin_Completed::Data            0                       # Table walker requests started/completed, data/inst
system.cpu.itb.stage2_mmu.stage2_tlb.walker.requestOrigin_Completed::Inst            0                       # Table walker requests started/completed, data/inst
system.cpu.itb.stage2_mmu.stage2_tlb.walker.requestOrigin_Completed::total            0                       # Table walker requests started/completed, data/inst
system.cpu.itb.stage2_mmu.stage2_tlb.walker.requestOrigin::total            0                       # Table walker requests started/completed, data/inst
system.cpu.itb.stage2_mmu.stage2_tlb.walker.power_state.pwrStateResidencyTicks::UNDEFINED 160446308000                       # Cumulative time (in ticks) in various power states
system.cpu.itb.walker.walks                         0                       # Table walker walks requested
system.cpu.itb.walker.requestOrigin_Requested::Data            0                       # Table walker requests started/completed, data/inst
system.cpu.itb.walker.requestOrigin_Requested::Inst            0                       # Table walker requests started/completed, data/inst
system.cpu.itb.walker.requestOrigin_Requested::total            0                       # Table walker requests started/completed, data/inst
system.cpu.itb.walker.requestOrigin_Completed::Data            0                       # Table walker requests started/completed, data/inst
system.cpu.itb.walker.requestOrigin_Completed::Inst            0                       # Table walker requests started/completed, data/inst
system.cpu.itb.walker.requestOrigin_Completed::total            0                       # Table walker requests started/completed, data/inst
system.cpu.itb.walker.requestOrigin::total            0                       # Table walker requests started/completed, data/inst
system.cpu.itb.walker.power_state.pwrStateResidencyTicks::UNDEFINED 160446308000                       # Cumulative time (in ticks) in various power states
system.cpu.power_state.pwrStateResidencyTicks::ON 160446308000                       # Cumulative time (in ticks) in various power states
system.cpu.thread_0.numInsts                100000000                       # Number of Instructions committed
system.cpu.thread_0.numOps                  100196363                       # Number of Ops committed
system.cpu.thread_0.numMemRefs                      0                       # Number of Memory References
system.cpu_clk_domain.clock                      1000                       # Clock period in ticks
system.cpu_voltage_domain.voltage                   1                       # Voltage in Volts
system.l2.demand_hits::.cpu.inst                   83                       # number of demand (read+write) hits
system.l2.demand_hits::.cpu.data               481735                       # number of demand (read+write) hits
system.l2.demand_hits::total                   481818                       # number of demand (read+write) hits
system.l2.overall_hits::.cpu.inst                  83                       # number of overall hits
system.l2.overall_hits::.cpu.data              481735                       # number of overall hits
system.l2.overall_hits::total                  481818                       # number of overall hits
system.l2.demand_misses::.cpu.inst                668                       # number of demand (read+write) misses
system.l2.demand_misses::.cpu.data             201175                       # number of demand (read+write) misses
system.l2.demand_misses::total                 201843                       # number of demand (read+write) misses
system.l2.overall_misses::.cpu.inst               668                       # number of overall misses
system.l2.overall_misses::.cpu.data            201175                       # number of overall misses
system.l2.overall_misses::total                201843                       # number of overall misses
system.l2.demand_miss_latency::.cpu.inst     66301000                       # number of demand (read+write) miss cycles
system.l2.demand_miss_latency::.cpu.data  20919995000                       # number of demand (read+write) miss cycles
system.l2.demand_miss_latency::total      20986296000                       # number of demand (read+write) miss cycles
system.l2.overall_miss_latency::.cpu.inst     66301000                       # number of overall miss cycles
system.l2.overall_miss_latency::.cpu.data  20919995000                       # number of overall miss cycles
system.l2.overall_miss_latency::total     20986296000                       # number of overall miss cycles
system.l2.demand_accesses::.cpu.inst              751                       # number of demand (read+write) accesses
system.l2.demand_accesses::.cpu.data           682910                       # number of demand (read+write) accesses
system.l2.demand_accesses::total               683661                       # number of demand (read+write) accesses
system.l2.overall_accesses::.cpu.inst             751                       # number of overall (read+write) accesses
system.l2.overall_accesses::.cpu.data          682910                       # number of overall (read+write) accesses
system.l2.overall_accesses::total              683661                       # number of overall (read+write) accesses
system.l2.demand_miss_rate::.cpu.inst        0.889481                       # miss rate for demand accesses
system.l2.demand_miss_rate::.cpu.data        0.294585                       # miss rate for demand accesses
system.l2.demand_miss_rate::total            0.295238                       # miss rate for demand accesses
system.l2.overall_miss_rate::.cpu.inst       0.889481                       # miss rate for overall accesses
system.l2.overall_miss_rate::.cpu.data       0.294585                       # miss rate for overall accesses
system.l2.overall_miss_rate::total           0.295238                       # miss rate for overall accesses
system.l2.demand_avg_miss_latency::.cpu.inst 99252.994012                       # average overall miss latency
system.l2.demand_avg_miss_latency::.cpu.data 103989.039394                       # average overall miss latency
system.l2.demand_avg_miss_latency::total 103973.365437                       # average overall miss latency
system.l2.overall_avg_miss_latency::.cpu.inst 99252.994012                       # average overall miss latency
system.l2.overall_avg_miss_latency::.cpu.data 103989.039394                       # average overall miss latency
system.l2.overall_avg_miss_latency::total 103973.365437                       # average overall miss latency
system.l2.blocked_cycles::no_mshrs                  0                       # number of cycles access was blocked
system.l2.blocked_cycles::no_targets                0                       # number of cycles access was blocked
system.l2.blocked::no_mshrs                         0                       # number of cycles access was blocked
system.l2.blocked::no_targets                       0                       # number of cycles access was blocked
system.l2.avg_blocked_cycles::no_mshrs            nan                       # average number of cycles each access was blocked
system.l2.avg_blocked_cycles::no_targets          nan                       # average number of cycles each access was blocked
system.l2.writebacks::.writebacks              111062                       # number of writebacks
system.l2.writebacks::total                    111062                       # number of writebacks
system.l2.demand_mshr_hits::.cpu.data               4                       # number of demand (read+write) MSHR hits
system.l2.demand_mshr_hits::total                   4                       # number of demand (read+write) MSHR hits
system.l2.overall_mshr_hits::.cpu.data              4                       # number of overall MSHR hits
system.l2.overall_mshr_hits::total                  4                       # number of overall MSHR hits
system.l2.demand_mshr_misses::.cpu.inst           668                       # number of demand (read+write) MSHR misses
system.l2.demand_mshr_misses::.cpu.data        201171                       # number of demand (read+write) MSHR misses
system.l2.demand_mshr_misses::total            201839                       # number of demand (read+write) MSHR misses
system.l2.overall_mshr_misses::.cpu.inst          668                       # number of overall MSHR misses
system.l2.overall_mshr_misses::.cpu.data       201171                       # number of overall MSHR misses
system.l2.overall_mshr_misses::total           201839                       # number of overall MSHR misses
system.l2.demand_mshr_miss_latency::.cpu.inst     52941000                       # number of demand (read+write) MSHR miss cycles
system.l2.demand_mshr_miss_latency::.cpu.data  16896285000                       # number of demand (read+write) MSHR miss cycles
system.l2.demand_mshr_miss_latency::total  16949226000                       # number of demand (read+write) MSHR miss cycles
system.l2.overall_mshr_miss_latency::.cpu.inst     52941000                       # number of overall MSHR miss cycles
system.l2.overall_mshr_miss_latency::.cpu.data  16896285000                       # number of overall MSHR miss cycles
system.l2.overall_mshr_miss_latency::total  16949226000                       # number of overall MSHR miss cycles
system.l2.demand_mshr_miss_rate::.cpu.inst     0.889481                       # mshr miss rate for demand accesses
system.l2.demand_mshr_miss_rate::.cpu.data     0.294579                       # mshr miss rate for demand accesses
system.l2.demand_mshr_miss_rate::total       0.295233                       # mshr miss rate for demand accesses
system.l2.overall_mshr_miss_rate::.cpu.inst     0.889481                       # mshr miss rate for overall accesses
system.l2.overall_mshr_miss_rate::.cpu.data     0.294579                       # mshr miss rate for overall accesses
system.l2.overall_mshr_miss_rate::total      0.295233                       # mshr miss rate for overall accesses
system.l2.demand_avg_mshr_miss_latency::.cpu.inst 79252.994012                       # average overall mshr miss latency
system.l2.demand_avg_mshr_miss_latency::.cpu.data 83989.665508                       # average overall mshr miss latency
system.l2.demand_avg_mshr_miss_latency::total 83973.989170                       # average overall mshr miss latency
system.l2.overall_avg_mshr_miss_latency::.cpu.inst 79252.994012                       # average overall mshr miss latency
system.l2.overall_avg_mshr_miss_latency::.cpu.data 83989.665508                       # average overall mshr miss latency
system.l2.overall_avg_mshr_miss_latency::total 83973.989170                       # average overall mshr miss latency
system.l2.replacements                         169194                       # number of replacements
system.l2.WritebackDirty_hits::.writebacks       606170                       # number of WritebackDirty hits
system.l2.WritebackDirty_hits::total           606170                       # number of WritebackDirty hits
system.l2.WritebackDirty_accesses::.writebacks       606170                       # number of WritebackDirty accesses(hits+misses)
system.l2.WritebackDirty_accesses::total       606170                       # number of WritebackDirty accesses(hits+misses)
system.l2.WritebackClean_hits::.writebacks          297                       # number of WritebackClean hits
system.l2.WritebackClean_hits::total              297                       # number of WritebackClean hits
system.l2.WritebackClean_accesses::.writebacks          297                       # number of WritebackClean accesses(hits+misses)
system.l2.WritebackClean_accesses::total          297                       # number of WritebackClean accesses(hits+misses)
system.l2.ReadExReq_hits::.cpu.data            150741                       # number of ReadExReq hits
system.l2.ReadExReq_hits::total                150741                       # number of ReadExReq hits
system.l2.ReadExReq_misses::.cpu.data          136101                       # number of ReadExReq misses
system.l2.ReadExReq_misses::total              136101                       # number of ReadExReq misses
system.l2.ReadExReq_miss_latency::.cpu.data  14427484000                       # number of ReadExReq miss cycles
system.l2.ReadExReq_miss_latency::total   14427484000                       # number of ReadExReq miss cycles
system.l2.ReadExReq_accesses::.cpu.data        286842                       # number of ReadExReq accesses(hits+misses)
system.l2.ReadExReq_accesses::total            286842                       # number of ReadExReq accesses(hits+misses)
system.l2.ReadExReq_miss_rate::.cpu.data     0.474481                       # miss rate for ReadExReq accesses
system.l2.ReadExReq_miss_rate::total         0.474481                       # miss rate for ReadExReq accesses
system.l2.ReadExReq_avg_miss_latency::.cpu.data 106005.716343                       # average ReadExReq miss latency
system.l2.ReadExReq_avg_miss_latency::total 106005.716343                       # average ReadExReq miss latency
system.l2.ReadExReq_mshr_misses::.cpu.data       136101                       # number of ReadExReq MSHR misses
system.l2.ReadExReq_mshr_misses::total         136101                       # number of ReadExReq MSHR misses
system.l2.ReadExReq_mshr_miss_latency::.cpu.data  11705464000                       # number of ReadExReq MSHR miss cycles
system.l2.ReadExReq_mshr_miss_latency::total  11705464000                       # number of ReadExReq MSHR miss cycles
system.l2.ReadExReq_mshr_miss_rate::.cpu.data     0.474481                       # mshr miss rate for ReadExReq accesses
system.l2.ReadExReq_mshr_miss_rate::total     0.474481                       # mshr miss rate for ReadExReq accesses
system.l2.ReadExReq_avg_mshr_miss_latency::.cpu.data 86005.716343                       # average ReadExReq mshr miss latency
system.l2.ReadExReq_avg_mshr_miss_latency::total 86005.716343                       # average ReadExReq mshr miss latency
system.l2.ReadCleanReq_hits::.cpu.inst             83                       # number of ReadCleanReq hits
system.l2.ReadCleanReq_hits::total                 83                       # number of ReadCleanReq hits
system.l2.ReadCleanReq_misses::.cpu.inst          668                       # number of ReadCleanReq misses
system.l2.ReadCleanReq_misses::total              668                       # number of ReadCleanReq misses
system.l2.ReadCleanReq_miss_latency::.cpu.inst     66301000                       # number of ReadCleanReq miss cycles
system.l2.ReadCleanReq_miss_latency::total     66301000                       # number of ReadCleanReq miss cycles
system.l2.ReadCleanReq_accesses::.cpu.inst          751                       # number of ReadCleanReq accesses(hits+misses)
system.l2.ReadCleanReq_accesses::total            751                       # number of ReadCleanReq accesses(hits+misses)
system.l2.ReadCleanReq_miss_rate::.cpu.inst     0.889481                       # miss rate for ReadCleanReq accesses
system.l2.ReadCleanReq_miss_rate::total      0.889481                       # miss rate for ReadCleanReq accesses
system.l2.ReadCleanReq_avg_miss_latency::.cpu.inst 99252.994012                       # average ReadCleanReq miss latency
system.l2.ReadCleanReq_avg_miss_latency::total 99252.994012                       # average ReadCleanReq miss latency
system.l2.ReadCleanReq_mshr_misses::.cpu.inst          668                       # number of ReadCleanReq MSHR misses
system.l2.ReadCleanReq_mshr_misses::total          668                       # number of ReadCleanReq MSHR misses
system.l2.ReadCleanReq_mshr_miss_latency::.cpu.inst     52941000                       # number of ReadCleanReq MSHR miss cycles
system.l2.ReadCleanReq_mshr_miss_latency::total     52941000                       # number of ReadCleanReq MSHR miss cycles
system.l2.ReadCleanReq_mshr_miss_rate::.cpu.inst     0.889481                       # mshr miss rate for ReadCleanReq accesses
system.l2.ReadCleanReq_mshr_miss_rate::total     0.889481                       # mshr miss rate for ReadCleanReq accesses
system.l2.ReadCleanReq_avg_mshr_miss_latency::.cpu.inst 79252.994012                       # average ReadCleanReq mshr miss latency
system.l2.ReadCleanReq_avg_mshr_miss_latency::total 79252.994012                       # average ReadCleanReq mshr miss latency
system.l2.ReadSharedReq_hits::.cpu.data        330994                       # number of ReadSharedReq hits
system.l2.ReadSharedReq_hits::total            330994                       # number of ReadSharedReq hits
system.l2.ReadSharedReq_misses::.cpu.data        65074                       # number of ReadSharedReq misses
system.l2.ReadSharedReq_misses::total           65074                       # number of ReadSharedReq misses
system.l2.ReadSharedReq_miss_latency::.cpu.data   6492511000                       # number of ReadSharedReq miss cycles
system.l2.ReadSharedReq_miss_latency::total   6492511000                       # number of ReadSharedReq miss cycles
system.l2.ReadSharedReq_accesses::.cpu.data       396068                       # number of ReadSharedReq accesses(hits+misses)
system.l2.ReadSharedReq_accesses::total        396068                       # number of ReadSharedReq accesses(hits+misses)
system.l2.ReadSharedReq_miss_rate::.cpu.data     0.164300                       # miss rate for ReadSharedReq accesses
system.l2.ReadSharedReq_miss_rate::total     0.164300                       # miss rate for ReadSharedReq accesses
system.l2.ReadSharedReq_avg_miss_latency::.cpu.data 99771.198943                       # average ReadSharedReq miss latency
system.l2.ReadSharedReq_avg_miss_latency::total 99771.198943                       # average ReadSharedReq miss latency
system.l2.ReadSharedReq_mshr_hits::.cpu.data            4                       # number of ReadSharedReq MSHR hits
system.l2.ReadSharedReq_mshr_hits::total            4                       # number of ReadSharedReq MSHR hits
system.l2.ReadSharedReq_mshr_misses::.cpu.data        65070                       # number of ReadSharedReq MSHR misses
system.l2.ReadSharedReq_mshr_misses::total        65070                       # number of ReadSharedReq MSHR misses
system.l2.ReadSharedReq_mshr_miss_latency::.cpu.data   5190821000                       # number of ReadSharedReq MSHR miss cycles
system.l2.ReadSharedReq_mshr_miss_latency::total   5190821000                       # number of ReadSharedReq MSHR miss cycles
system.l2.ReadSharedReq_mshr_miss_rate::.cpu.data     0.164290                       # mshr miss rate for ReadSharedReq accesses
system.l2.ReadSharedReq_mshr_miss_rate::total     0.164290                       # mshr miss rate for ReadSharedReq accesses
system.l2.ReadSharedReq_avg_mshr_miss_latency::.cpu.data 79772.875365                       # average ReadSharedReq mshr miss latency
system.l2.ReadSharedReq_avg_mshr_miss_latency::total 79772.875365                       # average ReadSharedReq mshr miss latency
system.l2.power_state.pwrStateResidencyTicks::UNDEFINED 160446308000                       # Cumulative time (in ticks) in various power states
system.l2.tags.tagsinuse                 32147.517592                       # Cycle average of tags in use
system.l2.tags.total_refs                     1365734                       # Total number of references to valid blocks.
system.l2.tags.sampled_refs                    201962                       # Sample count of references to valid blocks.
system.l2.tags.avg_refs                      6.762332                       # Average number of references to valid blocks.
system.l2.tags.warmup_cycle                     87000                       # Cycle when the warmup percentage was hit.
system.l2.tags.occ_blocks::.writebacks      43.325115                       # Average occupied blocks per requestor
system.l2.tags.occ_blocks::.cpu.inst        82.454789                       # Average occupied blocks per requestor
system.l2.tags.occ_blocks::.cpu.data     32021.737688                       # Average occupied blocks per requestor
system.l2.tags.occ_percent::.writebacks      0.001322                       # Average percentage of cache occupancy
system.l2.tags.occ_percent::.cpu.inst        0.002516                       # Average percentage of cache occupancy
system.l2.tags.occ_percent::.cpu.data        0.977226                       # Average percentage of cache occupancy
system.l2.tags.occ_percent::total            0.981064                       # Average percentage of cache occupancy
system.l2.tags.occ_task_id_blocks::1024         32768                       # Occupied blocks per task id
system.l2.tags.age_task_id_blocks_1024::0           14                       # Occupied blocks per task id
system.l2.tags.age_task_id_blocks_1024::1           17                       # Occupied blocks per task id
system.l2.tags.age_task_id_blocks_1024::2          618                       # Occupied blocks per task id
system.l2.tags.age_task_id_blocks_1024::3         8353                       # Occupied blocks per task id
system.l2.tags.age_task_id_blocks_1024::4        23766                       # Occupied blocks per task id
system.l2.tags.occ_task_id_percent::1024            1                       # Percentage of cache occupancy per task id
system.l2.tags.tag_accesses                  11127866                       # Number of tag accesses
system.l2.tags.data_accesses                 11127866                       # Number of data accesses
system.l2.tags.power_state.pwrStateResidencyTicks::UNDEFINED 160446308000                       # Cumulative time (in ticks) in various power states
system.mem_ctrls.avgPriority_.writebacks::samples    111062.00                       # Average QoS priority value for accepted requests
system.mem_ctrls.avgPriority_.cpu.inst::samples       668.00                       # Average QoS priority value for accepted requests
system.mem_ctrls.avgPriority_.cpu.data::samples    201130.00                       # Average QoS priority value for accepted requests
system.mem_ctrls.priorityMinLatency      0.000000018750                       # per QoS priority minimum request to response latency (s)
system.mem_ctrls.priorityMaxLatency      0.006865730500                       # per QoS priority maximum request to response latency (s)
system.mem_ctrls.numReadWriteTurnArounds         6614                       # Number of turnarounds from READ to WRITE
system.mem_ctrls.numWriteReadTurnArounds         6614                       # Number of turnarounds from WRITE to READ
system.mem_ctrls.numStayReadState              546838                       # Number of times bus staying in READ state
system.mem_ctrls.numStayWriteState             104579                       # Number of times bus staying in WRITE state
system.mem_ctrls.readReqs                      201839                       # Number of read requests accepted
system.mem_ctrls.writeReqs                     111062                       # Number of write requests accepted
system.mem_ctrls.readBursts                    201839                       # Number of controller read bursts, including those serviced by the write queue
system.mem_ctrls.writeBursts                   111062                       # Number of controller write bursts, including those merged in the write queue
system.mem_ctrls.servicedByWrQ                     41                       # Number of controller read bursts serviced by the write queue
system.mem_ctrls.mergedWrBursts                     0                       # Number of controller write bursts merged with an existing one
system.mem_ctrls.neitherReadNorWriteReqs            0                       # Number of requests that are neither read nor write
system.mem_ctrls.avgRdQLen                       1.04                       # Average read queue length when enqueuing
system.mem_ctrls.avgWrQLen                      24.68                       # Average write queue length when enqueuing
system.mem_ctrls.numRdRetry                         0                       # Number of times read queue was full causing retry
system.mem_ctrls.numWrRetry                         0                       # Number of times write queue was full causing retry
system.mem_ctrls.readPktSize::0                     0                       # Read request sizes (log2)
system.mem_ctrls.readPktSize::1                     0                       # Read request sizes (log2)
system.mem_ctrls.readPktSize::2                     0                       # Read request sizes (log2)
system.mem_ctrls.readPktSize::3                     0                       # Read request sizes (log2)
system.mem_ctrls.readPktSize::4                     0                       # Read request sizes (log2)
system.mem_ctrls.readPktSize::5                     0                       # Read request sizes (log2)
system.mem_ctrls.readPktSize::6                201839                       # Read request sizes (log2)
system.mem_ctrls.writePktSize::0                    0                       # Write request sizes (log2)
system.mem_ctrls.writePktSize::1                    0                       # Write request sizes (log2)
system.mem_ctrls.writePktSize::2                    0                       # Write request sizes (log2)
system.mem_ctrls.writePktSize::3                    0                       # Write request sizes (log2)
system.mem_ctrls.writePktSize::4                    0                       # Write request sizes (log2)
system.mem_ctrls.writePktSize::5                    0                       # Write request sizes (log2)
system.mem_ctrls.writePktSize::6               111062                       # Write request sizes (log2)
system.mem_ctrls.rdQLenPdf::0                  152534                       # What read queue length does an incoming req see
system.mem_ctrls.rdQLenPdf::1                   48792                       # What read queue length does an incoming req see
system.mem_ctrls.rdQLenPdf::2                     289                       # What read queue length does an incoming req see
system.mem_ctrls.rdQLenPdf::3                     182                       # What read queue length does an incoming req see
system.mem_ctrls.rdQLenPdf::4                       1                       # What read queue length does an incoming req see
system.mem_ctrls.rdQLenPdf::5                       0                       # What read queue length does an incoming req see
system.mem_ctrls.rdQLenPdf::6                       0                       # What read queue length does an incoming req see
system.mem_ctrls.rdQLenPdf::7                       0                       # What read queue length does an incoming req see
system.mem_ctrls.rdQLenPdf::8                       0                       # What read queue length does an incoming req see
system.mem_ctrls.rdQLenPdf::9                       0                       # What read queue length does an incoming req see
system.mem_ctrls.rdQLenPdf::10                      0                       # What read queue length does an incoming req see
[...]
system.mem_ctrls.dram.bw_write::.writebacks     44301225                       # Write bandwidth from this memory (bytes/s)
system.mem_ctrls.dram.bw_write::total        44301225                       # Write bandwidth from this memory (bytes/s)
system.mem_ctrls.dram.bw_total::.writebacks     44301225                       # Total bandwidth to/from this memory (bytes/s)
system.mem_ctrls.dram.bw_total::.cpu.inst       266457                       # Total bandwidth to/from this memory (bytes/s)
system.mem_ctrls.dram.bw_total::.cpu.data     80244564                       # Total bandwidth to/from this memory (bytes/s)
system.mem_ctrls.dram.bw_total::total       124812246                       # Total bandwidth to/from this memory (bytes/s)
system.mem_ctrls.dram.readBursts               201798                       # Number of DRAM read bursts
system.mem_ctrls.dram.writeBursts              111045                       # Number of DRAM write bursts
system.mem_ctrls.dram.perBankRdBursts::0        12893                       # Per bank write bursts
system.mem_ctrls.dram.perBankRdBursts::1        12814                       # Per bank write bursts
system.mem_ctrls.dram.perBankRdBursts::2        12751                       # Per bank write bursts
system.mem_ctrls.dram.perBankRdBursts::3        12498                       # Per bank write bursts
system.mem_ctrls.dram.perBankRdBursts::4        12517                       # Per bank write bursts
system.mem_ctrls.dram.perBankRdBursts::5        12471                       # Per bank write bursts
system.mem_ctrls.dram.perBankRdBursts::6        12474                       # Per bank write bursts
system.mem_ctrls.dram.perBankRdBursts::7        12478                       # Per bank write bursts
system.mem_ctrls.dram.perBankRdBursts::8        12197                       # Per bank write bursts
system.mem_ctrls.dram.perBankRdBursts::9        12332                       # Per bank write bursts
system.mem_ctrls.dram.perBankRdBursts::10        12635                       # Per bank write bursts
system.mem_ctrls.dram.perBankRdBursts::11        12759                       # Per bank write bursts
system.mem_ctrls.dram.perBankRdBursts::12        12726                       # Per bank write bursts
system.mem_ctrls.dram.perBankRdBursts::13        12832                       # Per bank write bursts
system.mem_ctrls.dram.perBankRdBursts::14        12700                       # Per bank write bursts
system.mem_ctrls.dram.perBankRdBursts::15        12721                       # Per bank write bursts
system.mem_ctrls.dram.perBankWrBursts::0         7074                       # Per bank write bursts
system.mem_ctrls.dram.perBankWrBursts::1         7119                       # Per bank write bursts
system.mem_ctrls.dram.perBankWrBursts::2         7065                       # Per bank write bursts
system.mem_ctrls.dram.perBankWrBursts::3         6914                       # Per bank write bursts
system.mem_ctrls.dram.perBankWrBursts::4         6996                       # Per bank write bursts
system.mem_ctrls.dram.perBankWrBursts::5         7054                       # Per bank write bursts
system.mem_ctrls.dram.perBankWrBursts::6         6998                       # Per bank write bursts
system.mem_ctrls.dram.perBankWrBursts::7         6807                       # Per bank write bursts
system.mem_ctrls.dram.perBankWrBursts::8         6553                       # Per bank write bursts
system.mem_ctrls.dram.perBankWrBursts::9         6715                       # Per bank write bursts
system.mem_ctrls.dram.perBankWrBursts::10         6886                       # Per bank write bursts
system.mem_ctrls.dram.perBankWrBursts::11         6999                       # Per bank write bursts
system.mem_ctrls.dram.perBankWrBursts::12         6950                       # Per bank write bursts
system.mem_ctrls.dram.perBankWrBursts::13         6965                       # Per bank write bursts
system.mem_ctrls.dram.perBankWrBursts::14         6956                       # Per bank write bursts
system.mem_ctrls.dram.perBankWrBursts::15         6994                       # Per bank write bursts
system.mem_ctrls.dram.totQLat              2786367000                       # Total ticks spent queuing
system.mem_ctrls.dram.totBusLat            1008990000                       # Total ticks spent in databus transfers
system.mem_ctrls.dram.totMemAccLat         6570079500                       # Total ticks spent from burst creation until serviced by the DRAM
system.mem_ctrls.dram.avgQLat                13807.70                       # Average queueing delay per DRAM burst
system.mem_ctrls.dram.avgBusLat               5000.00                       # Average bus latency per DRAM burst
system.mem_ctrls.dram.avgMemAccLat           32557.70                       # Average memory access latency per DRAM burst
system.mem_ctrls.dram.readRowHits              132607                       # Number of row buffer hits during reads
system.mem_ctrls.dram.writeRowHits              70011                       # Number of row buffer hits during writes
system.mem_ctrls.dram.readRowHitRate            65.71                       # Row buffer hit rate for reads
system.mem_ctrls.dram.writeRowHitRate           63.05                       # Row buffer hit rate for writes
system.mem_ctrls.dram.bytesPerActivate::samples       110218                       # Bytes accessed per row activation
system.mem_ctrls.dram.bytesPerActivate::mean   181.653668                       # Bytes accessed per row activation
system.mem_ctrls.dram.bytesPerActivate::gmean   107.780611                       # Bytes accessed per row activation
system.mem_ctrls.dram.bytesPerActivate::stdev   245.702510                       # Bytes accessed per row activation
system.mem_ctrls.dram.bytesPerActivate::0-127        75630     68.62%     68.62% # Bytes accessed per row activation
system.mem_ctrls.dram.bytesPerActivate::128-255        12291     11.15%     79.77% # Bytes accessed per row activation
system.mem_ctrls.dram.bytesPerActivate::256-383         5199      4.72%     84.49% # Bytes accessed per row activation
system.mem_ctrls.dram.bytesPerActivate::384-511         1365      1.24%     85.73% # Bytes accessed per row activation
system.mem_ctrls.dram.bytesPerActivate::512-639         8695      7.89%     93.61% # Bytes accessed per row activation
system.mem_ctrls.dram.bytesPerActivate::640-767          704      0.64%     94.25% # Bytes accessed per row activation
system.mem_ctrls.dram.bytesPerActivate::768-895          439      0.40%     94.65% # Bytes accessed per row activation
system.mem_ctrls.dram.bytesPerActivate::896-1023          417      0.38%     95.03% # Bytes accessed per row activation
system.mem_ctrls.dram.bytesPerActivate::1024-1151         5478      4.97%    100.00% # Bytes accessed per row activation
system.mem_ctrls.dram.bytesPerActivate::total       110218                       # Bytes accessed per row activation
system.mem_ctrls.dram.bytesRead              12915072                       # Total number of bytes read from DRAM
system.mem_ctrls.dram.bytesWritten            7106880                       # Total number of bytes written to DRAM
system.mem_ctrls.dram.avgRdBW               80.494666                       # Average DRAM read bandwidth in MiBytes/s
system.mem_ctrls.dram.avgWrBW               44.294444                       # Average DRAM write bandwidth in MiBytes/s
system.mem_ctrls.dram.peakBW                 12800.00                       # Theoretical peak bandwidth in MiByte/s
system.mem_ctrls.dram.busUtil                    0.97                       # Data bus utilization in percentage
system.mem_ctrls.dram.busUtilRead                0.63                       # Data bus utilization in percentage for reads
system.mem_ctrls.dram.busUtilWrite               0.35                       # Data bus utilization in percentage for writes
system.mem_ctrls.dram.pageHitRate               64.77                       # Row buffer hit rate, read and write combined
system.mem_ctrls.dram.power_state.pwrStateResidencyTicks::UNDEFINED 160446308000                       # Cumulative time (in ticks) in various power states
system.mem_ctrls.dram.rank0.actEnergy       395998680                       # Energy for activate commands per rank (pJ)
system.mem_ctrls.dram.rank0.preEnergy       210470700                       # Energy for precharge commands per rank (pJ)
system.mem_ctrls.dram.rank0.readEnergy      720397440                       # Energy for read commands per rank (pJ)
system.mem_ctrls.dram.rank0.writeEnergy     292460940                       # Energy for write commands per rank (pJ)
system.mem_ctrls.dram.rank0.refreshEnergy 12665271840.000002                       # Energy for refresh commands per rank (pJ)
system.mem_ctrls.dram.rank0.actBackEnergy  32455663200                       # Energy for active background per rank (pJ)
system.mem_ctrls.dram.rank0.preBackEnergy  34280297760                       # Energy for precharge background per rank (pJ)
system.mem_ctrls.dram.rank0.actPowerDownEnergy            0                       # Energy for active power-down per rank (pJ)
system.mem_ctrls.dram.rank0.prePowerDownEnergy            0                       # Energy for precharge power-down per rank (pJ)
system.mem_ctrls.dram.rank0.selfRefreshEnergy            0                       # Energy for self refresh per rank (pJ)
system.mem_ctrls.dram.rank0.totalEnergy   81020560560                       # Total energy per rank (pJ)
system.mem_ctrls.dram.rank0.averagePower   504.969928                       # Core power per rank (mW)
system.mem_ctrls.dram.rank0.totalIdleTime            0                       # Total Idle time Per DRAM Rank
system.mem_ctrls.dram.rank0.pwrStateTime::IDLE  88778371000                       # Time in different power states
system.mem_ctrls.dram.rank0.pwrStateTime::REF   5357560000                       # Time in different power states
system.mem_ctrls.dram.rank0.pwrStateTime::SREF            0                       # Time in different power states
system.mem_ctrls.dram.rank0.pwrStateTime::PRE_PDN            0                       # Time in different power states
system.mem_ctrls.dram.rank0.pwrStateTime::ACT  66310377000                       # Time in different power states
system.mem_ctrls.dram.rank0.pwrStateTime::ACT_PDN            0                       # Time in different power states
system.mem_ctrls.dram.rank1.actEnergy       391007820                       # Energy for activate commands per rank (pJ)
system.mem_ctrls.dram.rank1.preEnergy       207806610                       # Energy for precharge commands per rank (pJ)
system.mem_ctrls.dram.rank1.readEnergy      720440280                       # Energy for read commands per rank (pJ)
system.mem_ctrls.dram.rank1.writeEnergy     287193960                       # Energy for write commands per rank (pJ)
system.mem_ctrls.dram.rank1.refreshEnergy 12665271840.000002                       # Energy for refresh commands per rank (pJ)
system.mem_ctrls.dram.rank1.actBackEnergy  32582263050                       # Energy for active background per rank (pJ)
system.mem_ctrls.dram.rank1.preBackEnergy  34173687360                       # Energy for precharge background per rank (pJ)
system.mem_ctrls.dram.rank1.actPowerDownEnergy            0                       # Energy for active power-down per rank (pJ)
system.mem_ctrls.dram.rank1.prePowerDownEnergy            0                       # Energy for precharge power-down per rank (pJ)
system.mem_ctrls.dram.rank1.selfRefreshEnergy            0                       # Energy for self refresh per rank (pJ)
system.mem_ctrls.dram.rank1.totalEnergy   81027670920                       # Total energy per rank (pJ)
system.mem_ctrls.dram.rank1.averagePower   505.014244                       # Core power per rank (mW)
system.mem_ctrls.dram.rank1.totalIdleTime            0                       # Total Idle time Per DRAM Rank
system.mem_ctrls.dram.rank1.pwrStateTime::IDLE  88499441500                       # Time in different power states
system.mem_ctrls.dram.rank1.pwrStateTime::REF   5357560000                       # Time in different power states
system.mem_ctrls.dram.rank1.pwrStateTime::SREF            0                       # Time in different power states
system.mem_ctrls.dram.rank1.pwrStateTime::PRE_PDN            0                       # Time in different power states
system.mem_ctrls.dram.rank1.pwrStateTime::ACT  66589306500                       # Time in different power states
system.mem_ctrls.dram.rank1.pwrStateTime::ACT_PDN            0                       # Time in different power states
system.mem_ctrls.power_state.pwrStateResidencyTicks::UNDEFINED 160446308000                       # Cumulative time (in ticks) in various power states
system.membus.trans_dist::ReadResp              65738                       # Transaction distribution
system.membus.trans_dist::WritebackDirty       111062                       # Transaction distribution
system.membus.trans_dist::CleanEvict            57664                       # Transaction distribution
system.membus.trans_dist::ReadExReq            136101                       # Transaction distribution
system.membus.trans_dist::ReadExResp           136101                       # Transaction distribution
system.membus.trans_dist::ReadSharedReq         65738                       # Transaction distribution
system.membus.pkt_count_system.l2.mem_side_port::system.mem_ctrls.port       572404                       # Packet count per connected requestor and responder (bytes)
system.membus.pkt_count::total                 572404                       # Packet count per connected requestor and responder (bytes)
system.membus.pkt_size_system.l2.mem_side_port::system.mem_ctrls.port     20025664                       # Cumulative packet size per connected requestor and responder (bytes)
system.membus.pkt_size::total                20025664                       # Cumulative packet size per connected requestor and responder (bytes)
system.membus.snoops                                0                       # Total snoops (count)
system.membus.snoopTraffic                          0                       # Total snoop traffic (bytes)
system.membus.snoop_fanout::samples            201839                       # Request fanout histogram
system.membus.snoop_fanout::mean                    0                       # Request fanout histogram
system.membus.snoop_fanout::stdev                   0                       # Request fanout histogram
system.membus.snoop_fanout::underflows              0      0.00%      0.00% # Request fanout histogram
system.membus.snoop_fanout::0                  201839    100.00%    100.00% # Request fanout histogram
system.membus.snoop_fanout::1                       0      0.00%    100.00% # Request fanout histogram
system.membus.snoop_fanout::overflows               0      0.00%    100.00% # Request fanout histogram
system.membus.snoop_fanout::min_value               0                       # Request fanout histogram
system.membus.snoop_fanout::max_value               0                       # Request fanout histogram
system.membus.snoop_fanout::total              201839                       # Request fanout histogram
system.membus.power_state.pwrStateResidencyTicks::UNDEFINED 160446308000                       # Cumulative time (in ticks) in various power states
system.membus.reqLayer0.occupancy           814813000                       # Layer occupancy (ticks)
system.membus.reqLayer0.utilization               0.5                       # Layer utilization (%)
system.membus.respLayer1.occupancy         1090709000                       # Layer occupancy (ticks)
system.membus.respLayer1.utilization              0.7                       # Layer utilization (%)
system.tol2bus.trans_dist::ReadResp            396819                       # Transaction distribution
system.tol2bus.trans_dist::WritebackDirty       717232                       # Transaction distribution
system.tol2bus.trans_dist::WritebackClean          306                       # Transaction distribution
system.tol2bus.trans_dist::CleanEvict          133848                       # Transaction distribution
system.tol2bus.trans_dist::ReadExReq           286842                       # Transaction distribution
system.tol2bus.trans_dist::ReadExResp          286842                       # Transaction distribution
system.tol2bus.trans_dist::ReadCleanReq           751                       # Transaction distribution
system.tol2bus.trans_dist::ReadSharedReq       396068                       # Transaction distribution
system.tol2bus.pkt_count_system.cpu.icache.mem_side_port::system.l2.cpu_side_port         1808                       # Packet count per connected requestor and responder (bytes)
system.tol2bus.pkt_count_system.cpu.dcache.mem_side_port::system.l2.cpu_side_port      2047706                       # Packet count per connected requestor and responder (bytes)
system.tol2bus.pkt_count::total               2049514                       # Packet count per connected requestor and responder (bytes)
system.tol2bus.pkt_size_system.cpu.icache.mem_side_port::system.l2.cpu_side_port        67648                       # Cumulative packet size per connected requestor and responder (bytes)
system.tol2bus.pkt_size_system.cpu.dcache.mem_side_port::system.l2.cpu_side_port     82501120                       # Cumulative packet size per connected requestor and responder (bytes)
system.tol2bus.pkt_size::total               82568768                       # Cumulative packet size per connected requestor and responder (bytes)
system.tol2bus.snoops                          169194                       # Total snoops (count)
system.tol2bus.snoopTraffic                   7107968                       # Total snoop traffic (bytes)
system.tol2bus.snoop_fanout::samples           852855                       # Request fanout histogram
system.tol2bus.snoop_fanout::mean            0.000686                       # Request fanout histogram
system.tol2bus.snoop_fanout::stdev           0.026181                       # Request fanout histogram
system.tol2bus.snoop_fanout::underflows             0      0.00%      0.00% # Request fanout histogram
system.tol2bus.snoop_fanout::0                 852270     99.93%     99.93% # Request fanout histogram
system.tol2bus.snoop_fanout::1                    585      0.07%    100.00% # Request fanout histogram
system.tol2bus.snoop_fanout::2                      0      0.00%    100.00% # Request fanout histogram
system.tol2bus.snoop_fanout::overflows              0      0.00%    100.00% # Request fanout histogram
system.tol2bus.snoop_fanout::min_value              0                       # Request fanout histogram
system.tol2bus.snoop_fanout::max_value              1                       # Request fanout histogram
system.tol2bus.snoop_fanout::total             852855                       # Request fanout histogram
system.tol2bus.power_state.pwrStateResidencyTicks::UNDEFINED 160446308000                       # Cumulative time (in ticks) in various power states
system.tol2bus.reqLayer0.occupancy         2578805000                       # Layer occupancy (ticks)
system.tol2bus.reqLayer0.utilization              1.6                       # Layer utilization (%)
system.tol2bus.respLayer0.occupancy           2253000                       # Layer occupancy (ticks)
system.tol2bus.respLayer0.utilization             0.0                       # Layer utilization (%)
system.tol2bus.respLayer1.occupancy        2048733996                       # Layer occupancy (ticks)
system.tol2bus.respLayer1.utilization             1.3                       # Layer utilization (%)
system.voltage_domain.voltage                       1                       # Voltage in Volts

---------- End Simulation Statistics   ----------
