
---------- Begin Simulation Statistics ----------
final_tick                               707972272000                       # Number of ticks from beginning of simulation (restored from checkpoints and never reset)
host_inst_rate                                 206491                       # Simulator instruction rate (inst/s)
host_mem_usage                                 663332                       # Number of bytes of host memory used
host_op_rate                                   380394                       # Simulator op (including micro ops) rate (op/s)
host_seconds                                   484.28                       # Real time elapsed on the host
host_tick_rate                             1461895670                       # Simulator tick rate (ticks/s)
sim_freq                                 1000000000000                       # Frequency of simulated ticks
sim_insts                                   100000000                       # Number of instructions simulated
sim_ops                                     184218644                       # Number of ops (including micro ops) simulated
sim_seconds                                  0.707972                       # Number of seconds simulated
sim_ticks                                707972272000                       # Number of ticks simulated
system.cpu.committedInsts                   100000000                       # Number of instructions committed
system.cpu.committedOps                     184218644                       # Number of ops (including micro ops) committed
system.cpu.cpi                               7.079723                       # CPI: cycles per instruction
system.cpu.discardedOps                          4263                       # Number of ops (including micro ops) which were discarded before commit
system.cpu.idleCycles                       486174170                       # Total number of cycles that the object has spent stopped
system.cpu.ipc                               0.141248                       # IPC: instructions per cycle
system.cpu.numCycles                        707972272                       # number of cpu cycles simulated
system.cpu.numFetchSuspends                         0                       # Number of times Execute suspended instruction fetching
system.cpu.numWorkItemsCompleted                    0                       # number of work items this cpu completed
system.cpu.numWorkItemsStarted                      0                       # number of work items this cpu started
system.cpu.op_class_0::No_OpClass                   0      0.00%      0.00% # Class of committed instruction
system.cpu.op_class_0::IntAlu                97640476     53.00%     53.00% # Class of committed instruction
system.cpu.op_class_0::IntMult                 114699      0.06%     53.06% # Class of committed instruction
system.cpu.op_class_0::IntDiv                       0      0.00%     53.06% # Class of committed instruction
system.cpu.op_class_0::FloatAdd                     0      0.00%     53.06% # Class of committed instruction
system.cpu.op_class_0::FloatCmp                     0      0.00%     53.06% # Class of committed instruction
system.cpu.op_class_0::FloatCvt                     0      0.00%     53.06% # Class of committed instruction
system.cpu.op_class_0::FloatMult                    0      0.00%     53.06% # Class of committed instruction
system.cpu.op_class_0::FloatMultAcc                 0      0.00%     53.06% # Class of committed instruction
system.cpu.op_class_0::FloatDiv                     0      0.00%     53.06% # Class of committed instruction
system.cpu.op_class_0::FloatMisc                    0      0.00%     53.06% # Class of committed instruction
system.cpu.op_class_0::FloatSqrt                    0      0.00%     53.06% # Class of committed instruction
system.cpu.op_class_0::SimdAdd                      8      0.00%     53.06% # Class of committed instruction
system.cpu.op_class_0::SimdAddAcc                   0      0.00%     53.06% # Class of committed instruction
system.cpu.op_class_0::SimdAlu                      8      0.00%     53.06% # Class of committed instruction
system.cpu.op_class_0::SimdCmp                      6      0.00%     53.06% # Class of committed instruction
system.cpu.op_class_0::SimdCvt                      0      0.00%     53.06% # Class of committed instruction
system.cpu.op_class_0::SimdMisc                     1      0.00%     53.06% # Class of committed instruction
system.cpu.op_class_0::SimdMult                     0      0.00%     53.06% # Class of committed instruction
system.cpu.op_class_0::SimdMultAcc                  0      0.00%     53.06% # Class of committed instruction
system.cpu.op_class_0::SimdShift                    0      0.00%     53.06% # Class of committed instruction
system.cpu.op_class_0::SimdShiftAcc                 0      0.00%     53.06% # Class of committed instruction
system.cpu.op_class_0::SimdDiv                      0      0.00%     53.06% # Class of committed instruction
system.cpu.op_class_0::SimdSqrt                     0      0.00%     53.06% # Class of committed instruction
system.cpu.op_class_0::SimdFloatAdd                 0      0.00%     53.06% # Class of committed instruction
system.cpu.op_class_0::SimdFloatAlu                 0      0.00%     53.06% # Class of committed instruction
system.cpu.op_class_0::SimdFloatCmp                 0      0.00%     53.06% # Class of committed instruction
system.cpu.op_class_0::SimdFloatCvt                 0      0.00%     53.06% # Class of committed instruction
system.cpu.op_class_0::SimdFloatDiv                 0      0.00%     53.06% # Class of committed instruction
system.cpu.op_class_0::SimdFloatMisc               23      0.00%     53.06% # Class of committed instruction
system.cpu.op_class_0::SimdFloatMult                0      0.00%     53.06% # Class of committed instruction
system.cpu.op_class_0::SimdFloatMultAcc             0      0.00%     53.06% # Class of committed instruction
system.cpu.op_class_0::SimdFloatSqrt                0      0.00%     53.06% # Class of committed instruction
system.cpu.op_class_0::SimdReduceAdd                0      0.00%     53.06% # Class of committed instruction
system.cpu.op_class_0::SimdReduceAlu                0      0.00%     53.06% # Class of committed instruction
system.cpu.op_class_0::SimdReduceCmp                0      0.00%     53.06% # Class of committed instruction
system.cpu.op_class_0::SimdFloatReduceAdd            0      0.00%     53.06% # Class of committed instruction
system.cpu.op_class_0::SimdFloatReduceCmp            0      0.00%     53.06% # Class of committed instruction
system.cpu.op_class_0::SimdAes                      0      0.00%     53.06% # Class of committed instruction
system.cpu.op_class_0::SimdAesMix                   0      0.00%     53.06% # Class of committed instruction
system.cpu.op_class_0::SimdSha1Hash                 0      0.00%     53.06% # Class of committed instruction
system.cpu.op_class_0::SimdSha1Hash2                0      0.00%     53.06% # Class of committed instruction
system.cpu.op_class_0::SimdSha256Hash               0      0.00%     53.06% # Class of committed instruction
system.cpu.op_class_0::SimdSha256Hash2              0      0.00%     53.06% # Class of committed instruction
system.cpu.op_class_0::SimdShaSigma2                0      0.00%     53.06% # Class of committed instruction
system.cpu.op_class_0::SimdShaSigma3                0      0.00%     53.06% # Class of committed instruction
system.cpu.op_class_0::SimdPredAlu                  0      0.00%     53.06% # Class of committed instruction
system.cpu.op_class_0::MemRead                2082689      1.13%     54.20% # Class of committed instruction
system.cpu.op_class_0::MemWrite              84380734     45.80%    100.00% # Class of committed instruction
system.cpu.op_class_0::FloatMemRead                 0      0.00%    100.00% # Class of committed instruction
system.cpu.op_class_0::FloatMemWrite                0      0.00%    100.00% # Class of committed instruction
system.cpu.op_class_0::IprAccess                    0      0.00%    100.00% # Class of committed instruction
system.cpu.op_class_0::InstPrefetch                 0      0.00%    100.00% # Class of committed instruction
system.cpu.op_class_0::total                184218644                       # Class of committed instruction
system.cpu.tickCycles                       221798102                       # Number of cycles that the object actually ticked
system.cpu.workload.numSyscalls                    18                       # Number of system calls
system.membus.snoop_filter.hit_multi_requests            0                       # Number of requests hitting in the snoop filter with multiple (>1) holders of the requested data.
system.membus.snoop_filter.hit_multi_snoops            0                       # Number of snoops hitting in the snoop filter with multiple (>1) holders of the requested data.
system.membus.snoop_filter.hit_single_requests      5255593                       # Number of requests hitting in the snoop filter with a single holder of the requested data.
system.membus.snoop_filter.hit_single_snoops            0                       # Number of snoops hitting in the snoop filter with a single holder of the requested data.
system.membus.snoop_filter.tot_requests      10519497                       # Total number of requests made to the snoop filter.
system.membus.snoop_filter.tot_snoops               0                       # Total number of snoops made to the snoop filter.
system.tol2bus.snoop_filter.hit_multi_requests          272                       # Number of requests hitting in the snoop filter with multiple (>1) holders of the requested data.
system.tol2bus.snoop_filter.hit_multi_snoops            0                       # Number of snoops hitting in the snoop filter with multiple (>1) holders of the requested data.
system.tol2bus.snoop_filter.hit_single_requests      5315829                       # Number of requests hitting in the snoop filter with a single holder of the requested data.
system.tol2bus.snoop_filter.hit_single_snoops          255                       # Number of snoops hitting in the snoop filter with a single holder of the requested data.
system.tol2bus.snoop_filter.tot_requests     10632810                       # Total number of requests made to the snoop filter.
system.tol2bus.snoop_filter.tot_snoops            255                       # Total number of snoops made to the snoop filter.
system.clk_domain.clock                          1000                       # Clock period in ticks
system.cpu.branchPred.lookups                10658047                       # Number of BP lookups
system.cpu.branchPred.condPredicted          10649861                       # Number of conditional branches predicted
system.cpu.branchPred.condIncorrect              1440                       # Number of conditional branches incorrect
system.cpu.branchPred.BTBLookups             10650146                       # Number of BTB lookups
system.cpu.branchPred.BTBHits                10648825                       # Number of BTB hits
system.cpu.branchPred.BTBHitPct             99.987596                       # BTB Hit Percentage
system.cpu.branchPred.RASUsed                    2695                       # Number of times the RAS was used to get a target.
system.cpu.branchPred.RASIncorrect                  0                       # Number of incorrect RAS predictions.
system.cpu.branchPred.indirectLookups             191                       # Number of indirect predictor lookups.
system.cpu.branchPred.indirectHits                 24                       # Number of indirect target hits.
system.cpu.branchPred.indirectMisses              167                       # Number of indirect misses.
system.cpu.branchPred.indirectMispredicted          103                       # Number of mispredicted indirect branches.
system.cpu.dcache.demand_hits::.cpu.data     75808074                       # number of demand (read+write) hits
system.cpu.dcache.demand_hits::total         75808074                       # number of demand (read+write) hits
system.cpu.dcache.overall_hits::.cpu.data     75808108                       # number of overall hits
system.cpu.dcache.overall_hits::total        75808108                       # number of overall hits
system.cpu.dcache.demand_misses::.cpu.data     10572367                       # number of demand (read+write) misses
system.cpu.dcache.demand_misses::total       10572367                       # number of demand (read+write) misses
system.cpu.dcache.overall_misses::.cpu.data     10572404                       # number of overall misses
system.cpu.dcache.overall_misses::total      10572404                       # number of overall misses
system.cpu.dcache.demand_miss_latency::.cpu.data 1112071928999                       # number of demand (read+write) miss cycles
system.cpu.dcache.demand_miss_latency::total 1112071928999                       # number of demand (read+write) miss cycles
system.cpu.dcache.overall_miss_latency::.cpu.data 1112071928999                       # number of overall miss cycles
system.cpu.dcache.overall_miss_latency::total 1112071928999                       # number of overall miss cycles
system.cpu.dcache.demand_accesses::.cpu.data     86380441                       # number of demand (read+write) accesses
system.cpu.dcache.demand_accesses::total     86380441                       # number of demand (read+write) accesses
system.cpu.dcache.overall_accesses::.cpu.data     86380512                       # number of overall (read+write) accesses
system.cpu.dcache.overall_accesses::total     86380512                       # number of overall (read+write) accesses
system.cpu.dcache.demand_miss_rate::.cpu.data     0.122393                       # miss rate for demand accesses
system.cpu.dcache.demand_miss_rate::total     0.122393                       # miss rate for demand accesses
system.cpu.dcache.overall_miss_rate::.cpu.data     0.122393                       # miss rate for overall accesses
system.cpu.dcache.overall_miss_rate::total     0.122393                       # miss rate for overall accesses
system.cpu.dcache.demand_avg_miss_latency::.cpu.data 105186.655836                       # average overall miss latency
system.cpu.dcache.demand_avg_miss_latency::total 105186.655836                       # average overall miss latency
system.cpu.dcache.overall_avg_miss_latency::.cpu.data 105186.287716                       # average overall miss latency
system.cpu.dcache.overall_avg_miss_latency::total 105186.287716                       # average overall miss latency
system.cpu.dcache.blocked_cycles::no_mshrs          362                       # number of cycles access was blocked
system.cpu.dcache.blocked_cycles::no_targets            0                       # number of cycles access was blocked
system.cpu.dcache.blocked::no_mshrs                 3                       # number of cycles access was blocked
system.cpu.dcache.blocked::no_targets               0                       # number of cycles access was blocked
system.cpu.dcache.avg_blocked_cycles::no_mshrs   120.666667                       # average number of cycles each access was blocked
system.cpu.dcache.avg_blocked_cycles::no_targets          nan                       # average number of cycles each access was blocked
system.cpu.dcache.writebacks::.writebacks      5286554                       # number of writebacks
system.cpu.dcache.writebacks::total           5286554                       # number of writebacks
system.cpu.dcache.demand_mshr_hits::.cpu.data      5260398                       # number of demand (read+write) MSHR hits
system.cpu.dcache.demand_mshr_hits::total      5260398                       # number of demand (read+write) MSHR hits
system.cpu.dcache.overall_mshr_hits::.cpu.data      5260398                       # number of overall MSHR hits
system.cpu.dcache.overall_mshr_hits::total      5260398                       # number of overall MSHR hits
system.cpu.dcache.demand_mshr_misses::.cpu.data      5311969                       # number of demand (read+write) MSHR misses
system.cpu.dcache.demand_mshr_misses::total      5311969                       # number of demand (read+write) MSHR misses
system.cpu.dcache.overall_mshr_misses::.cpu.data      5312002                       # number of overall MSHR misses
system.cpu.dcache.overall_mshr_misses::total      5312002                       # number of overall MSHR misses
system.cpu.dcache.demand_mshr_miss_latency::.cpu.data 543981615000                       # number of demand (read+write) MSHR miss cycles
system.cpu.dcache.demand_mshr_miss_latency::total 543981615000                       # number of demand (read+write) MSHR miss cycles
system.cpu.dcache.overall_mshr_miss_latency::.cpu.data 543985943000                       # number of overall MSHR miss cycles
system.cpu.dcache.overall_mshr_miss_latency::total 543985943000                       # number of overall MSHR miss cycles
system.cpu.dcache.demand_mshr_miss_rate::.cpu.data     0.061495                       # mshr miss rate for demand accesses
system.cpu.dcache.demand_mshr_miss_rate::total     0.061495                       # mshr miss rate for demand accesses
system.cpu.dcache.overall_mshr_miss_rate::.cpu.data     0.061495                       # mshr miss rate for overall accesses
system.cpu.dcache.overall_mshr_miss_rate::total     0.061495                       # mshr miss rate for overall accesses
system.cpu.dcache.demand_avg_mshr_miss_latency::.cpu.data 102406.775152                       # average overall mshr miss latency
system.cpu.dcache.demand_avg_mshr_miss_latency::total 102406.775152                       # average overall mshr miss latency
system.cpu.dcache.overall_avg_mshr_miss_latency::.cpu.data 102406.953725                       # average overall mshr miss latency
system.cpu.dcache.overall_avg_mshr_miss_latency::total 102406.953725                       # average overall mshr miss latency
system.cpu.dcache.replacements                5310978                       # number of replacements
system.cpu.dcache.ReadReq_hits::.cpu.data      1996209                       # number of ReadReq hits
system.cpu.dcache.ReadReq_hits::total         1996209                       # number of ReadReq hits
system.cpu.dcache.ReadReq_misses::.cpu.data        47785                       # number of ReadReq misses
system.cpu.dcache.ReadReq_misses::total         47785                       # number of ReadReq misses
system.cpu.dcache.ReadReq_miss_latency::.cpu.data   2074703000                       # number of ReadReq miss cycles
system.cpu.dcache.ReadReq_miss_latency::total   2074703000                       # number of ReadReq miss cycles
system.cpu.dcache.ReadReq_accesses::.cpu.data      2043994                       # number of ReadReq accesses(hits+misses)
system.cpu.dcache.ReadReq_accesses::total      2043994                       # number of ReadReq accesses(hits+misses)
system.cpu.dcache.ReadReq_miss_rate::.cpu.data     0.023378                       # miss rate for ReadReq accesses
system.cpu.dcache.ReadReq_miss_rate::total     0.023378                       # miss rate for ReadReq accesses
system.cpu.dcache.ReadReq_avg_miss_latency::.cpu.data 43417.453176                       # average ReadReq miss latency
system.cpu.dcache.ReadReq_avg_miss_latency::total 43417.453176                       # average ReadReq miss latency
system.cpu.dcache.ReadReq_mshr_hits::.cpu.data           30                       # number of ReadReq MSHR hits
system.cpu.dcache.ReadReq_mshr_hits::total           30                       # number of ReadReq MSHR hits
system.cpu.dcache.ReadReq_mshr_misses::.cpu.data        47755                       # number of ReadReq MSHR misses
system.cpu.dcache.ReadReq_mshr_misses::total        47755                       # number of ReadReq MSHR misses
system.cpu.dcache.ReadReq_mshr_miss_latency::.cpu.data   1976804000                       # number of ReadReq MSHR miss cycles
system.cpu.dcache.ReadReq_mshr_miss_latency::total   1976804000                       # number of ReadReq MSHR miss cycles
system.cpu.dcache.ReadReq_mshr_miss_rate::.cpu.data     0.023364                       # mshr miss rate for ReadReq accesses
system.cpu.dcache.ReadReq_mshr_miss_rate::total     0.023364                       # mshr miss rate for ReadReq accesses
system.cpu.dcache.ReadReq_avg_mshr_miss_latency::.cpu.data 41394.702125                       # average ReadReq mshr miss latency
system.cpu.dcache.ReadReq_avg_mshr_miss_latency::total 41394.702125                       # average ReadReq mshr miss latency
system.cpu.dcache.WriteReq_hits::.cpu.data     73811865                       # number of WriteReq hits
system.cpu.dcache.WriteReq_hits::total       73811865                       # number of WriteReq hits
system.cpu.dcache.WriteReq_misses::.cpu.data     10524582                       # number of WriteReq misses
system.cpu.dcache.WriteReq_misses::total     10524582                       # number of WriteReq misses
system.cpu.dcache.WriteReq_miss_latency::.cpu.data 1109997225999                       # number of WriteReq miss cycles
system.cpu.dcache.WriteReq_miss_latency::total 1109997225999                       # number of WriteReq miss cycles
system.cpu.dcache.WriteReq_accesses::.cpu.data     84336447                       # number of WriteReq accesses(hits+misses)
system.cpu.dcache.WriteReq_accesses::total     84336447                       # number of WriteReq accesses(hits+misses)
system.cpu.dcache.WriteReq_miss_rate::.cpu.data     0.124793                       # miss rate for WriteReq accesses
system.cpu.dcache.WriteReq_miss_rate::total     0.124793                       # miss rate for WriteReq accesses
system.cpu.dcache.WriteReq_avg_miss_latency::.cpu.data 105467.107957                       # average WriteReq miss latency
system.cpu.dcache.WriteReq_avg_miss_latency::total 105467.107957                       # average WriteReq miss latency
system.cpu.dcache.WriteReq_mshr_hits::.cpu.data      5260368                       # number of WriteReq MSHR hits
system.cpu.dcache.WriteReq_mshr_hits::total      5260368                       # number of WriteReq MSHR hits
system.cpu.dcache.WriteReq_mshr_misses::.cpu.data      5264214                       # number of WriteReq MSHR misses
system.cpu.dcache.WriteReq_mshr_misses::total      5264214                       # number of WriteReq MSHR misses
system.cpu.dcache.WriteReq_mshr_miss_latency::.cpu.data 542004811000                       # number of WriteReq MSHR miss cycles
system.cpu.dcache.WriteReq_mshr_miss_latency::total 542004811000                       # number of WriteReq MSHR miss cycles
system.cpu.dcache.WriteReq_mshr_miss_rate::.cpu.data     0.062419                       # mshr miss rate for WriteReq accesses
system.cpu.dcache.WriteReq_mshr_miss_rate::total     0.062419                       # mshr miss rate for WriteReq accesses
system.cpu.dcache.WriteReq_avg_mshr_miss_latency::.cpu.data 102960.254085                       # average WriteReq mshr miss latency
system.cpu.dcache.WriteReq_avg_mshr_miss_latency::total 102960.254085                       # average WriteReq mshr miss latency
system.cpu.dcache.SoftPFReq_hits::.cpu.data           34                       # number of SoftPFReq hits
system.cpu.dcache.SoftPFReq_hits::total            34                       # number of SoftPFReq hits
system.cpu.dcache.SoftPFReq_misses::.cpu.data           37                       # number of SoftPFReq misses
system.cpu.dcache.SoftPFReq_misses::total           37                       # number of SoftPFReq misses
system.cpu.dcache.SoftPFReq_accesses::.cpu.data           71                       # number of SoftPFReq accesses(hits+misses)
system.cpu.dcache.SoftPFReq_accesses::total           71                       # number of SoftPFReq accesses(hits+misses)
system.cpu.dcache.SoftPFReq_miss_rate::.cpu.data     0.521127                       # miss rate for SoftPFReq accesses
system.cpu.dcache.SoftPFReq_miss_rate::total     0.521127                       # miss rate for SoftPFReq accesses
system.cpu.dcache.SoftPFReq_mshr_misses::.cpu.data           33                       # number of SoftPFReq MSHR misses
system.cpu.dcache.SoftPFReq_mshr_misses::total           33                       # number of SoftPFReq MSHR misses
system.cpu.dcache.SoftPFReq_mshr_miss_latency::.cpu.data      4328000                       # number of SoftPFReq MSHR miss cycles
system.cpu.dcache.SoftPFReq_mshr_miss_latency::total      4328000                       # number of SoftPFReq MSHR miss cycles
system.cpu.dcache.SoftPFReq_mshr_miss_rate::.cpu.data     0.464789                       # mshr miss rate for SoftPFReq accesses
system.cpu.dcache.SoftPFReq_mshr_miss_rate::total     0.464789                       # mshr miss rate for SoftPFReq accesses
system.cpu.dcache.SoftPFReq_avg_mshr_miss_latency::.cpu.data 131151.515152                       # average SoftPFReq mshr miss latency
system.cpu.dcache.SoftPFReq_avg_mshr_miss_latency::total 131151.515152                       # average SoftPFReq mshr miss latency
system.cpu.dcache.LoadLockedReq_hits::.cpu.data           34                       # number of LoadLockedReq hits
system.cpu.dcache.LoadLockedReq_hits::total           34                       # number of LoadLockedReq hits
system.cpu.dcache.LoadLockedReq_accesses::.cpu.data           34                       # number of LoadLockedReq accesses(hits+misses)
system.cpu.dcache.LoadLockedReq_accesses::total           34                       # number of LoadLockedReq accesses(hits+misses)
system.cpu.dcache.StoreCondReq_hits::.cpu.data           34                       # number of StoreCondReq hits
system.cpu.dcache.StoreCondReq_hits::total           34                       # number of StoreCondReq hits
system.cpu.dcache.StoreCondReq_accesses::.cpu.data           34                       # number of StoreCondReq accesses(hits+misses)
system.cpu.dcache.StoreCondReq_accesses::total           34                       # number of StoreCondReq accesses(hits+misses)
system.cpu.dcache.power_state.pwrStateResidencyTicks::UNDEFINED 707972272000                       # Cumulative time (in ticks) in various power states
system.cpu.dcache.tags.tagsinuse          1022.902290                       # Cycle average of tags in use
system.cpu.dcache.tags.total_refs            81120178                       # Total number of references to valid blocks.
system.cpu.dcache.tags.sampled_refs           5312002                       # Sample count of references to valid blocks.
system.cpu.dcache.tags.avg_refs             15.271112                       # Average number of references to valid blocks.
system.cpu.dcache.tags.warmup_cycle            223000                       # Cycle when the warmup percentage was hit.
system.cpu.dcache.tags.occ_blocks::.cpu.data  1022.902290                       # Average occupied blocks per requestor
system.cpu.dcache.tags.occ_percent::.cpu.data     0.998928                       # Average percentage of cache occupancy
system.cpu.dcache.tags.occ_percent::total     0.998928                       # Average percentage of cache occupancy
system.cpu.dcache.tags.occ_task_id_blocks::1024         1024                       # Occupied blocks per task id
system.cpu.dcache.tags.age_task_id_blocks_1024::0           76                       # Occupied blocks per task id
system.cpu.dcache.tags.age_task_id_blocks_1024::1          679                       # Occupied blocks per task id
system.cpu.dcache.tags.age_task_id_blocks_1024::2          269                       # Occupied blocks per task id
system.cpu.dcache.tags.occ_task_id_percent::1024            1                       # Percentage of cache occupancy per task id
system.cpu.dcache.tags.tag_accesses          91692582                       # Number of tag accesses
system.cpu.dcache.tags.data_accesses         91692582                       # Number of data accesses
system.cpu.dcache.tags.power_state.pwrStateResidencyTicks::UNDEFINED 707972272000                       # Cumulative time (in ticks) in various power states
system.cpu.dtb.instHits                             0                       # ITB inst hits
system.cpu.dtb.instMisses                           0                       # ITB inst misses
system.cpu.dtb.readHits                             0                       # DTB read hits
system.cpu.dtb.readMisses                           0                       # DTB read misses
system.cpu.dtb.writeHits                            0                       # DTB write hits
system.cpu.dtb.writeMisses                          0                       # DTB write misses
system.cpu.dtb.inserts                              0                       # Number of times an entry is inserted into the TLB
system.cpu.dtb.flushTlb                             0                       # Number of times complete TLB was flushed
system.cpu.dtb.flushTlbMva                          0                       # Number of times TLB was flushed by MVA
system.cpu.dtb.flushTlbMvaAsid                      0                       # Number of times TLB was flushed by MVA & ASID
system.cpu.dtb.flushTlbAsid                         0                       # Number of times TLB was flushed by ASID
system.cpu.dtb.flushedEntries                       0                       # Number of entries that have been flushed from TLB
system.cpu.dtb.alignFaults                          0                       # Number of TLB faults due to alignment restrictions
system.cpu.dtb.prefetchFaults                       0                       # Number of TLB faults due to prefetch
system.cpu.dtb.domainFaults                         0                       # Number of TLB faults due to domain restrictions
system.cpu.dtb.permsFaults                          0                       # Number of TLB faults due to permissions restrictions
system.cpu.dtb.readAccesses                         0                       # DTB read accesses
system.cpu.dtb.writeAccesses                        0                       # DTB write accesses
system.cpu.dtb.instAccesses                         0                       # ITB inst accesses
system.cpu.dtb.hits                                 0                       # Total TLB (inst and data) hits
system.cpu.dtb.misses                               0                       # Total TLB (inst and data) misses
system.cpu.dtb.accesses                             0                       # Total TLB (inst and data) accesses
system.cpu.dtb.stage2_mmu.stage2_tlb.instHits            0                       # ITB inst hits
system.cpu.dtb.stage2_mmu.stage2_tlb.instMisses            0                       # ITB inst misses
system.cpu.dtb.stage2_mmu.stage2_tlb.readHits            0                       # DTB read hits
system.cpu.dtb.stage2_mmu.stage2_tlb.readMisses            0                       # DTB read misses
system.cpu.dtb.stage2_mmu.stage2_tlb.writeHits            0                       # DTB write hits
system.cpu.dtb.stage2_mmu.stage2_tlb.writeMisses            0                       # DTB write misses
system.cpu.dtb.stage2_mmu.stage2_tlb.inserts            0                       # Number of times an entry is inserted into the TLB
system.cpu.dtb.stage2_mmu.stage2_tlb.flushTlb            0                       # Number of times complete TLB was flushed
system.cpu.dtb.stage2_mmu.stage2_tlb.flushTlbMva            0                       # Number of times TLB was flushed by MVA
system.cpu.dtb.stage2_mmu.stage2_tlb.flushTlbMvaAsid            0                       # Number of times TLB was flushed by MVA & ASID
system.cpu.dtb.stage2_mmu.stage2_tlb.flushTlbAsid            0                       # Number of times TLB was flushed by ASID
system.cpu.dtb.stage2_mmu.stage2_tlb.flushedEntries            0                       # Number of entries that have been flushed from TLB
system.cpu.dtb.stage2_mmu.stage2_tlb.alignFaults            0                       # Number of TLB faults due to alignment restrictions
system.cpu.dtb.stage2_mmu.stage2_tlb.prefetchFaults            0                       # Number of TLB faults due to prefetch
system.cpu.dtb.stage2_mmu.stage2_tlb.domainFaults            0                       # Number of TLB faults due to domain restrictions
system.cpu.dtb.stage2_mmu.stage2_tlb.permsFaults            0                       # Number of TLB faults due to permissions restrictions
system.cpu.dtb.stage2_mmu.stage2_tlb.readAccesses            0                       # DTB read accesses
system.cpu.dtb.stage2_mmu.stage2_tlb.writeAccesses            0                       # DTB write accesses
system.cpu.dtb.stage2_mmu.stage2_tlb.instAccesses            0                       # ITB inst accesses
system.cpu.dtb.stage2_mmu.stage2_tlb.hits            0                       # Total TLB (inst and data) hits
system.cpu.dtb.stage2_mmu.stage2_tlb.misses            0                       # Total TLB (inst and data) misses
system.cpu.dtb.stage2_mmu.stage2_tlb.accesses            0                       # Total TLB (inst and data) accesses
system.cpu.dtb.stage2_mmu.stage2_tlb.walker.walks            0                       # Table walker walks requested
system.cpu.dtb.stage2_mmu.stage2_tlb.walker.requestOrigin_Requested::Data            0                       # Table walker requests started/completed, data/inst
system.cpu.dtb.stage2_mmu.stage2_tlb.walker.requestOrigin_Requested::Inst            0                       # Table walker requests started/completed, data/inst
system.cpu.dtb.stage2_mmu.stage2_tlb.walker.requestOrigin_Requested::total            0                       # Table walker requests started/completed, data/inst
system.cpu.dtb.stage2_mmu.stage2_tlb.walker.requestOrigin_Completed::Data            0                       # Table walker requests started/completed, data/inst
system.cpu.dtb.stage2_mmu.stage2_tlb.walker.requestOrigin_Completed::Inst            0                       # Table walker requests started/completed, data/inst
system.cpu.dtb.stage2_mmu.stage2_tlb.walker.requestOrigin_Completed::total            0                       # Table walker requests started/completed, data/inst
system.cpu.dtb.stage2_mmu.stage2_tlb.walker.requestOrigin::total            0                       # Table walker requests started/completed, data/inst
system.cpu.dtb.stage2_mmu.stage2_tlb.walker.power_state.pwrStateResidencyTicks::UNDEFINED 707972272000                       # Cumulative time (in ticks) in various power states
system.cpu.dtb.walker.walks                         0                       # Table walker walks requested
system.cpu.dtb.walker.requestOrigin_Requested::Data            0                       # Table walker requests started/completed, data/inst
system.cpu.dtb.walker.requestOrigin_Requested::Inst            0                       # Table walker requests started/completed, data/inst
system.cpu.dtb.walker.requestOrigin_Requested::total            0                       # Table walker requests started/completed, data/inst
system.cpu.dtb.walker.requestOrigin_Completed::Data            0                       # Table walker requests started/completed, data/inst
system.cpu.dtb.walker.requestOrigin_Completed::Inst            0                       # Table walker requests started/completed, data/inst
system.cpu.dtb.walker.requestOrigin_Completed::total            0                       # Table walker requests started/completed, data/inst
system.cpu.dtb.walker.requestOrigin::total            0                       # Table walker requests started/completed, data/inst
system.cpu.dtb.walker.power_state.pwrStateResidencyTicks::UNDEFINED 707972272000                       # Cumulative time (in ticks) in various power states
system.cpu.fetch2.intInstructions            45070415                       # Number of integer instructions successfully decoded
system.cpu.fetch2.fpInstructions                    0                       # Number of floating point instructions successfully decoded
system.cpu.fetch2.vecInstructions                   0                       # Number of SIMD instructions successfully decoded
system.cpu.fetch2.loadInstructions            2086256                       # Number of memory load instructions successfully decoded
system.cpu.fetch2.storeInstructions            169045                       # Number of memory store instructions successfully decoded
system.cpu.fetch2.amoInstructions                   0                       # Number of memory atomic instructions successfully decoded
system.cpu.icache.demand_hits::.cpu.inst     32128802                       # number of demand (read+write) hits
system.cpu.icache.demand_hits::total         32128802                       # number of demand (read+write) hits
system.cpu.icache.overall_hits::.cpu.inst     32128802                       # number of overall hits
system.cpu.icache.overall_hits::total        32128802                       # number of overall hits
system.cpu.icache.demand_misses::.cpu.inst         4979                       # number of demand (read+write) misses
system.cpu.icache.demand_misses::total           4979                       # number of demand (read+write) misses
system.cpu.icache.overall_misses::.cpu.inst         4979                       # number of overall misses
system.cpu.icache.overall_misses::total          4979                       # number of overall misses
system.cpu.icache.demand_miss_latency::.cpu.inst    251219000                       # number of demand (read+write) miss cycles
system.cpu.icache.demand_miss_latency::total    251219000                       # number of demand (read+write) miss cycles
system.cpu.icache.overall_miss_latency::.cpu.inst    251219000                       # number of overall miss cycles
system.cpu.icache.overall_miss_latency::total    251219000                       # number of overall miss cycles
system.cpu.icache.demand_accesses::.cpu.inst     32133781                       # number of demand (read+write) accesses
system.cpu.icache.demand_accesses::total     32133781                       # number of demand (read+write) accesses
system.cpu.icache.overall_accesses::.cpu.inst     32133781                       # number of overall (read+write) accesses
system.cpu.icache.overall_accesses::total     32133781                       # number of overall (read+write) accesses
system.cpu.icache.demand_miss_rate::.cpu.inst     0.000155                       # miss rate for demand accesses
system.cpu.icache.demand_miss_rate::total     0.000155                       # miss rate for demand accesses
system.cpu.icache.overall_miss_rate::.cpu.inst     0.000155                       # miss rate for overall accesses
system.cpu.icache.overall_miss_rate::total     0.000155                       # miss rate for overall accesses
system.cpu.icache.demand_avg_miss_latency::.cpu.inst 50455.713999                       # average overall miss latency
system.cpu.icache.demand_avg_miss_latency::total 50455.713999                       # average overall miss latency
system.cpu.icache.overall_avg_miss_latency::.cpu.inst 50455.713999                       # average overall miss latency
system.cpu.icache.overall_avg_miss_latency::total 50455.713999                       # average overall miss latency
system.cpu.icache.blocked_cycles::no_mshrs            0                       # number of cycles access was blocked
system.cpu.icache.blocked_cycles::no_targets            0                       # number of cycles access was blocked
system.cpu.icache.blocked::no_mshrs                 0                       # number of cycles access was blocked
system.cpu.icache.blocked::no_targets               0                       # number of cycles access was blocked
system.cpu.icache.avg_blocked_cycles::no_mshrs          nan                       # average number of cycles each access was blocked
system.cpu.icache.avg_blocked_cycles::no_targets          nan                       # average number of cycles each access was blocked
system.cpu.icache.writebacks::.writebacks         4851                       # number of writebacks
system.cpu.icache.writebacks::total              4851                       # number of writebacks
system.cpu.icache.demand_mshr_misses::.cpu.inst         4979                       # number of demand (read+write) MSHR misses
system.cpu.icache.demand_mshr_misses::total         4979                       # number of demand (read+write) MSHR misses
system.cpu.icache.overall_mshr_misses::.cpu.inst         4979                       # number of overall MSHR misses
system.cpu.icache.overall_mshr_misses::total         4979                       # number of overall MSHR misses
system.cpu.icache.demand_mshr_miss_latency::.cpu.inst    241261000                       # number of demand (read+write) MSHR miss cycles
system.cpu.icache.demand_mshr_miss_latency::total    241261000                       # number of demand (read+write) MSHR miss cycles
system.cpu.icache.overall_mshr_miss_latency::.cpu.inst    241261000                       # number of overall MSHR miss cycles
system.cpu.icache.overall_mshr_miss_latency::total    241261000                       # number of overall MSHR miss cycles
system.cpu.icache.demand_mshr_miss_rate::.cpu.inst     0.000155                       # mshr miss rate for demand accesses
system.cpu.icache.demand_mshr_miss_rate::total     0.000155                       # mshr miss rate for demand accesses
system.cpu.icache.overall_mshr_miss_rate::.cpu.inst     0.000155                       # mshr miss rate for overall accesses
system.cpu.icache.overall_mshr_miss_rate::total     0.000155                       # mshr miss rate for overall accesses
system.cpu.icache.demand_avg_mshr_miss_latency::.cpu.inst 48455.713999                       # average overall mshr miss latency
system.cpu.icache.demand_avg_mshr_miss_latency::total 48455.713999                       # average overall mshr miss latency
system.cpu.icache.overall_avg_mshr_miss_latency::.cpu.inst 48455.713999                       # average overall mshr miss latency
system.cpu.icache.overall_avg_mshr_miss_latency::total 48455.713999                       # average overall mshr miss latency
system.cpu.icache.replacements                   4851                       # number of replacements
system.cpu.icache.ReadReq_hits::.cpu.inst     32128802                       # number of ReadReq hits
system.cpu.icache.ReadReq_hits::total        32128802                       # number of ReadReq hits
system.cpu.icache.ReadReq_misses::.cpu.inst         4979                       # number of ReadReq misses
system.cpu.icache.ReadReq_misses::total          4979                       # number of ReadReq misses
system.cpu.icache.ReadReq_miss_latency::.cpu.inst    251219000                       # number of ReadReq miss cycles
system.cpu.icache.ReadReq_miss_latency::total    251219000                       # number of ReadReq miss cycles
system.cpu.icache.ReadReq_accesses::.cpu.inst     32133781                       # number of ReadReq accesses(hits+misses)
system.cpu.icache.ReadReq_accesses::total     32133781                       # number of ReadReq accesses(hits+misses)
system.cpu.icache.ReadReq_miss_rate::.cpu.inst     0.000155                       # miss rate for ReadReq accesses
system.cpu.icache.ReadReq_miss_rate::total     0.000155                       # miss rate for ReadReq accesses
system.cpu.icache.ReadReq_avg_miss_latency::.cpu.inst 50455.713999                       # average ReadReq miss latency
system.cpu.icache.ReadReq_avg_miss_latency::total 50455.713999                       # average ReadReq miss latency
system.cpu.icache.ReadReq_mshr_misses::.cpu.inst         4979                       # number of ReadReq MSHR misses
system.cpu.icache.ReadReq_mshr_misses::total         4979                       # number of ReadReq MSHR misses
system.cpu.icache.ReadReq_mshr_miss_latency::.cpu.inst    241261000                       # number of ReadReq MSHR miss cycles
system.cpu.icache.ReadReq_mshr_miss_latency::total    241261000                       # number of ReadReq MSHR miss cycles
system.cpu.icache.ReadReq_mshr_miss_rate::.cpu.inst     0.000155                       # mshr miss rate for ReadReq accesses
system.cpu.icache.ReadReq_mshr_miss_rate::total     0.000155                       # mshr miss rate for ReadReq accesses
system.cpu.icache.ReadReq_avg_mshr_miss_latency::.cpu.inst 48455.713999                       # average ReadReq mshr miss latency
system.cpu.icache.ReadReq_avg_mshr_miss_latency::total 48455.713999                       # average ReadReq mshr miss latency
system.cpu.icache.power_state.pwrStateResidencyTicks::UNDEFINED 707972272000                       # Cumulative time (in ticks) in various power states
system.cpu.icache.tags.tagsinuse           125.272461                       # Cycle average of tags in use
system.cpu.icache.tags.total_refs            32133781                       # Total number of references to valid blocks.
system.cpu.icache.tags.sampled_refs              4979                       # Sample count of references to valid blocks.
system.cpu.icache.tags.avg_refs           6453.862422                       # Average number of references to valid blocks.
system.cpu.icache.tags.warmup_cycle            108000                       # Cycle when the warmup percentage was hit.
system.cpu.icache.tags.occ_blocks::.cpu.inst   125.272461                       # Average occupied blocks per requestor
system.cpu.icache.tags.occ_percent::.cpu.inst     0.978691                       # Average percentage of cache occupancy
system.cpu.icache.tags.occ_percent::total     0.978691                       # Average percentage of cache occupancy
system.cpu.icache.tags.occ_task_id_blocks::1024          128                       # Occupied blocks per task id
system.cpu.icache.tags.age_task_id_blocks_1024::4          128                       # Occupied blocks per task id
system.cpu.icache.tags.occ_task_id_percent::1024            1                       # Percentage of cache occupancy per task id
system.cpu.icache.tags.tag_accesses          32138760                       # Number of tag accesses
system.cpu.icache.tags.data_accesses         32138760                       # Number of data accesses
system.cpu.icache.tags.power_state.pwrStateResidencyTicks::UNDEFINED 707972272000                       # Cumulative time (in ticks) in various power states
system.cpu.itb.instHits                             0                       # ITB inst hits
system.cpu.itb.instMisses                           0                       # ITB inst misses
system.cpu.itb.readHits                             0                       # DTB read hits
system.cpu.itb.readMisses                           0                       # DTB read misses
system.cpu.itb.writeHits                            0                       # DTB write hits
system.cpu.itb.writeMisses                          0                       # DTB write misses
system.cpu.itb.inserts                              0                       # Number of times an entry is inserted into the TLB
system.cpu.itb.flushTlb                             0                       # Number of times complete TLB was flushed
system.cpu.itb.flushTlbMva                          0                       # Number of times TLB was flushed by MVA
system.cpu.itb.flushTlbMvaAsid                      0                       # Number of times TLB was flushed by MVA & ASID
system.cpu.itb.flushTlbAsid                         0                       # Number of times TLB was flushed by ASID
system.cpu.itb.flushedEntries                       0                       # Number of entries that have been flushed from TLB
system.cpu.itb.alignFaults                          0                       # Number of TLB faults due to alignment restrictions
system.cpu.itb.prefetchFaults                       0                       # Number of TLB faults due to prefetch
system.cpu.itb.domainFaults                         0                       # Number of TLB faults due to domain restrictions
system.cpu.itb.permsFaults                          0                       # Number of TLB faults due to permissions restrictions
system.cpu.itb.readAccesses                         0                       # DTB read accesses
system.cpu.itb.writeAccesses                        0                       # DTB write accesses
system.cpu.itb.instAccesses                         0                       # ITB inst accesses
system.cpu.itb.hits                                 0                       # Total TLB (inst and data) hits
system.cpu.itb.misses                               0                       # Total TLB (inst and data) misses
system.cpu.itb.accesses                             0                       # Total TLB (inst and data) accesses
system.cpu.itb.stage2_mmu.stage2_tlb.instHits            0                       # ITB inst hits
system.cpu.itb.stage2_mmu.stage2_tlb.instMisses            0                       # ITB inst misses
system.cpu.itb.stage2_mmu.stage2_tlb.readHits            0                       # DTB read hits
system.cpu.itb.stage2_mmu.stage2_tlb.readMisses            0                       # DTB read misses
system.cpu.itb.stage2_mmu.stage2_tlb.writeHits            0                       # DTB write hits
system.cpu.itb.stage2_mmu.stage2_tlb.writeMisses            0                       # DTB write misses
system.cpu.itb.stage2_mmu.stage2_tlb.inserts            0                       # Number of times an entry is inserted into the TLB
system.cpu.itb.stage2_mmu.stage2_tlb.flushTlb            0                       # Number of times complete TLB was flushed
system.cpu.itb.stage2_mmu.stage2_tlb.flushTlbMva            0                       # Number of times TLB was flushed by MVA
system.cpu.itb.stage2_mmu.stage2_tlb.flushTlbMvaAsid            0                       # Number of times TLB was flushed by MVA & ASID
system.cpu.itb.stage2_mmu.stage2_tlb.flushTlbAsid            0                       # Number of times TLB was flushed by ASID
system.cpu.itb.stage2_mmu.stage2_tlb.flushedEntries            0                       # Number of entries that have been flushed from TLB
system.cpu.itb.stage2_mmu.stage2_tlb.alignFaults            0                       # Number of TLB faults due to alignment restrictions
system.cpu.itb.stage2_mmu.stage2_tlb.prefetchFaults            0                       # Number of TLB faults due to prefetch
system.cpu.itb.stage2_mmu.stage2_tlb.domainFaults            0                       # Number of TLB faults due to domain restrictions
system.cpu.itb.stage2_mmu.stage2_tlb.permsFaults            0                       # Number of TLB faults due to permissions restrictions
system.cpu.itb.stage2_mmu.stage2_tlb.readAccesses            0                       # DTB read accesses
system.cpu.itb.stage2_mmu.stage2_tlb.writeAccesses            0                       # DTB write accesses
system.cpu.itb.stage2_mmu.stage2_tlb.instAccesses            0                       # ITB inst accesses
system.cpu.itb.stage2_mmu.stage2_tlb.hits            0                       # Total TLB (inst and data) hits
system.cpu.itb.stage2_mmu.stage2_tlb.misses            0                       # Total TLB (inst and data) misses
system.cpu.itb.stage2_mmu.stage2_tlb.accesses            0                       # Total TLB (inst and data) accesses
system.cpu.itb.stage2_mmu.stage2_tlb.walker.walks            0                       # Table walker walks requested
system.cpu.itb.stage2_mmu.stage2_tlb.walker.requestOrigin_Requested::Data            0                       # Table walker requests started/completed, data/inst
system.cpu.itb.stage2_mmu.stage2_tlb.walker.requestOrigin_Requested::Inst            0                       # Table walker requests started/completed, data/inst
system.cpu.itb.stage2_mmu.stage2_tlb.walker.requestOrigin_Requested::total            0                       # Table walker requests started/completed, data/inst
system.cpu.itb.stage2_mmu.stage2_tlb.walker.requestOrigin_Completed::Data            0                       # Table walker requests started/completed, data/inst
system.cpu.itb.stage2_mmu.stage2_tlb.walker.requestOrigin_Completed::Inst            0                       # Table walker requests started/completed, data/inst
system.cpu.itb.stage2_mmu.stage2_tlb.walker.requestOrigin_Completed::total            0                       # Table walker requests started/completed, data/inst
system.cpu.itb.stage2_mmu.stage2_tlb.walker.requestOrigin::total            0                       # Table walker requests started/completed, data/inst
system.cpu.itb.stage2_mmu.stage2_tlb.walker.power_state.pwrStateResidencyTicks::UNDEFINED 707972272000                       # Cumulative time (in ticks) in various power states
system.cpu.itb.walker.walks                         0                       # Table walker walks requested
system.cpu.itb.walker.requestOrigin_Requested::Data            0                       # Table walker requests started/completed, data/inst
system.cpu.itb.walker.requestOrigin_Requested::Inst            0                       # Table walker requests started/completed, data/inst
system.cpu.itb.walker.requestOrigin_Requested::total            0                       # Table walker requests started/completed, data/inst
system.cpu.itb.walker.requestOrigin_Completed::Data            0                       # Table walker requests started/completed, data/inst
system.cpu.itb.walker.requestOrigin_Completed::Inst            0                       # Table walker requests started/completed, data/inst
system.cpu.itb.walker.requestOrigin_Completed::total            0                       # Table walker requests started/completed, data/inst
system.cpu.itb.walker.requestOrigin::total            0                       # Table walker requests started/completed, data/inst
system.cpu.itb.walker.power_state.pwrStateResidencyTicks::UNDEFINED 707972272000                       # Cumulative time (in ticks) in various power states
system.cpu.power_state.pwrStateResidencyTicks::ON 707972272000                       # Cumulative time (in ticks) in various power states
system.cpu.thread_0.numInsts                100000000                       # Number of Instructions committed
system.cpu.thread_0.numOps                  184218644                       # Number of Ops committed
system.cpu.thread_0.numMemRefs                      0                       # Number of Memory References
system.cpu_clk_domain.clock                      1000                       # Clock period in ticks
system.cpu_voltage_domain.voltage                   1                       # Voltage in Volts
system.l2.demand_hits::.cpu.inst                 4364                       # number of demand (read+write) hits
system.l2.demand_hits::.cpu.data                48698                       # number of demand (read+write) hits
system.l2.demand_hits::total                    53062                       # number of demand (read+write) hits
system.l2.overall_hits::.cpu.inst                4364                       # number of overall hits
system.l2.overall_hits::.cpu.data               48698                       # number of overall hits
system.l2.overall_hits::total                   53062                       # number of overall hits
system.l2.demand_misses::.cpu.inst                615                       # number of demand (read+write) misses
system.l2.demand_misses::.cpu.data            5263304                       # number of demand (read+write) misses
system.l2.demand_misses::total                5263919                       # number of demand (read+write) misses
system.l2.overall_misses::.cpu.inst               615                       # number of overall misses
system.l2.overall_misses::.cpu.data           5263304                       # number of overall misses
system.l2.overall_misses::total               5263919                       # number of overall misses
system.l2.demand_miss_latency::.cpu.inst     61835000                       # number of demand (read+write) miss cycles
system.l2.demand_miss_latency::.cpu.data 526212462000                       # number of demand (read+write) miss cycles
system.l2.demand_miss_latency::total     526274297000                       # number of demand (read+write) miss cycles
system.l2.overall_miss_latency::.cpu.inst     61835000                       # number of overall miss cycles
system.l2.overall_miss_latency::.cpu.data 526212462000                       # number of overall miss cycles
system.l2.overall_miss_latency::total    526274297000                       # number of overall miss cycles
system.l2.demand_accesses::.cpu.inst             4979                       # number of demand (read+write) accesses
system.l2.demand_accesses::.cpu.data          5312002                       # number of demand (read+write) accesses
system.l2.demand_accesses::total              5316981                       # number of demand (read+write) accesses
system.l2.overall_accesses::.cpu.inst            4979                       # number of overall (read+write) accesses
system.l2.overall_accesses::.cpu.data         5312002                       # number of overall (read+write) accesses
system.l2.overall_accesses::total             5316981                       # number of overall (read+write) accesses
system.l2.demand_miss_rate::.cpu.inst        0.123519                       # miss rate for demand accesses
system.l2.demand_miss_rate::.cpu.data        0.990832                       # miss rate for demand accesses
system.l2.demand_miss_rate::total            0.990020                       # miss rate for demand accesses
system.l2.overall_miss_rate::.cpu.inst       0.123519                       # miss rate for overall accesses
system.l2.overall_miss_rate::.cpu.data       0.990832                       # miss rate for overall accesses
system.l2.overall_miss_rate::total           0.990020                       # miss rate for overall accesses
system.l2.demand_avg_miss_latency::.cpu.inst 100544.715447                       # average overall miss latency
system.l2.demand_avg_miss_latency::.cpu.data 99977.592402                       # average overall miss latency
system.l2.demand_avg_miss_latency::total 99977.658661                       # average overall miss latency
system.l2.overall_avg_miss_latency::.cpu.inst 100544.715447                       # average overall miss latency
system.l2.overall_avg_miss_latency::.cpu.data 99977.592402                       # average overall miss latency
system.l2.overall_avg_miss_latency::total 99977.658661                       # average overall miss latency
system.l2.blocked_cycles::no_mshrs                  0                       # number of cycles access was blocked
system.l2.blocked_cycles::no_targets                0                       # number of cycles access was blocked
system.l2.blocked::no_mshrs                         0                       # number of cycles access was blocked
system.l2.blocked::no_targets                       0                       # number of cycles access was blocked
system.l2.avg_blocked_cycles::no_mshrs            nan                       # average number of cycles each access was blocked
system.l2.avg_blocked_cycles::no_targets          nan                       # average number of cycles each access was blocked
system.l2.writebacks::.writebacks             5254853                       # number of writebacks
system.l2.writebacks::total                   5254853                       # number of writebacks
system.l2.demand_mshr_hits::.cpu.inst               1                       # number of demand (read+write) MSHR hits
system.l2.demand_mshr_hits::.cpu.data               5                       # number of demand (read+write) MSHR hits
system.l2.demand_mshr_hits::total                   6                       # number of demand (read+write) MSHR hits
system.l2.overall_mshr_hits::.cpu.inst              1                       # number of overall MSHR hits
system.l2.overall_mshr_hits::.cpu.data              5                       # number of overall MSHR hits
system.l2.overall_mshr_hits::total                  6                       # number of overall MSHR hits
system.l2.demand_mshr_misses::.cpu.inst           614                       # number of demand (read+write) MSHR misses
system.l2.demand_mshr_misses::.cpu.data       5263299                       # number of demand (read+write) MSHR misses
system.l2.demand_mshr_misses::total           5263913                       # number of demand (read+write) MSHR misses
system.l2.overall_mshr_misses::.cpu.inst          614                       # number of overall MSHR misses
system.l2.overall_mshr_misses::.cpu.data      5263299                       # number of overall MSHR misses
system.l2.overall_mshr_misses::total          5263913                       # number of overall MSHR misses
system.l2.demand_mshr_miss_latency::.cpu.inst     49452000                       # number of demand (read+write) MSHR miss cycles
system.l2.demand_mshr_miss_latency::.cpu.data 420946077000                       # number of demand (read+write) MSHR miss cycles
system.l2.demand_mshr_miss_latency::total 420995529000                       # number of demand (read+write) MSHR miss cycles
system.l2.overall_mshr_miss_latency::.cpu.inst     49452000                       # number of overall MSHR miss cycles
system.l2.overall_mshr_miss_latency::.cpu.data 420946077000                       # number of overall MSHR miss cycles
system.l2.overall_mshr_miss_latency::total 420995529000                       # number of overall MSHR miss cycles
system.l2.demand_mshr_miss_rate::.cpu.inst     0.123318                       # mshr miss rate for demand accesses
system.l2.demand_mshr_miss_rate::.cpu.data     0.990832                       # mshr miss rate for demand accesses
system.l2.demand_mshr_miss_rate::total       0.990019                       # mshr miss rate for demand accesses
system.l2.overall_mshr_miss_rate::.cpu.inst     0.123318                       # mshr miss rate for overall accesses
system.l2.overall_mshr_miss_rate::.cpu.data     0.990832                       # mshr miss rate for overall accesses
system.l2.overall_mshr_miss_rate::total      0.990019                       # mshr miss rate for overall accesses
system.l2.demand_avg_mshr_miss_latency::.cpu.inst 80540.716612                       # average overall mshr miss latency
system.l2.demand_avg_mshr_miss_latency::.cpu.data 79977.610430                       # average overall mshr miss latency
system.l2.demand_avg_mshr_miss_latency::total 79977.676113                       # average overall mshr miss latency
system.l2.overall_avg_mshr_miss_latency::.cpu.inst 80540.716612                       # average overall mshr miss latency
system.l2.overall_avg_mshr_miss_latency::.cpu.data 79977.610430                       # average overall mshr miss latency
system.l2.overall_avg_mshr_miss_latency::total 79977.676113                       # average overall mshr miss latency
system.l2.replacements                        5255839                       # number of replacements
system.l2.WritebackDirty_hits::.writebacks      5286554                       # number of WritebackDirty hits
system.l2.WritebackDirty_hits::total          5286554                       # number of WritebackDirty hits
system.l2.WritebackDirty_accesses::.writebacks      5286554                       # number of WritebackDirty accesses(hits+misses)
system.l2.WritebackDirty_accesses::total      5286554                       # number of WritebackDirty accesses(hits+misses)
system.l2.WritebackClean_hits::.writebacks         4809                       # number of WritebackClean hits
system.l2.WritebackClean_hits::total             4809                       # number of WritebackClean hits
system.l2.WritebackClean_accesses::.writebacks         4809                       # number of WritebackClean accesses(hits+misses)
system.l2.WritebackClean_accesses::total         4809                       # number of WritebackClean accesses(hits+misses)
system.l2.ReadExReq_hits::.cpu.data              1198                       # number of ReadExReq hits
system.l2.ReadExReq_hits::total                  1198                       # number of ReadExReq hits
system.l2.ReadExReq_misses::.cpu.data         5263016                       # number of ReadExReq misses
system.l2.ReadExReq_misses::total             5263016                       # number of ReadExReq misses
system.l2.ReadExReq_miss_latency::.cpu.data 526180588000                       # number of ReadExReq miss cycles
system.l2.ReadExReq_miss_latency::total  526180588000                       # number of ReadExReq miss cycles
system.l2.ReadExReq_accesses::.cpu.data       5264214                       # number of ReadExReq accesses(hits+misses)
system.l2.ReadExReq_accesses::total           5264214                       # number of ReadExReq accesses(hits+misses)
system.l2.ReadExReq_miss_rate::.cpu.data     0.999772                       # miss rate for ReadExReq accesses
system.l2.ReadExReq_miss_rate::total         0.999772                       # miss rate for ReadExReq accesses
system.l2.ReadExReq_avg_miss_latency::.cpu.data 99977.007100                       # average ReadExReq miss latency
system.l2.ReadExReq_avg_miss_latency::total 99977.007100                       # average ReadExReq miss latency
system.l2.ReadExReq_mshr_misses::.cpu.data      5263016                       # number of ReadExReq MSHR misses
system.l2.ReadExReq_mshr_misses::total        5263016                       # number of ReadExReq MSHR misses
system.l2.ReadExReq_mshr_miss_latency::.cpu.data 420920268000                       # number of ReadExReq MSHR miss cycles
system.l2.ReadExReq_mshr_miss_latency::total 420920268000                       # number of ReadExReq MSHR miss cycles
system.l2.ReadExReq_mshr_miss_rate::.cpu.data     0.999772                       # mshr miss rate for ReadExReq accesses
system.l2.ReadExReq_mshr_miss_rate::total     0.999772                       # mshr miss rate for ReadExReq accesses
system.l2.ReadExReq_avg_mshr_miss_latency::.cpu.data 79977.007100                       # average ReadExReq mshr miss latency
system.l2.ReadExReq_avg_mshr_miss_latency::total 79977.007100                       # average ReadExReq mshr miss latency
system.l2.ReadCleanReq_hits::.cpu.inst           4364                       # number of ReadCleanReq hits
system.l2.ReadCleanReq_hits::total               4364                       # number of ReadCleanReq hits
system.l2.ReadCleanReq_misses::.cpu.inst          615                       # number of ReadCleanReq misses
system.l2.ReadCleanReq_misses::total              615                       # number of ReadCleanReq misses
system.l2.ReadCleanReq_miss_latency::.cpu.inst     61835000                       # number of ReadCleanReq miss cycles
system.l2.ReadCleanReq_miss_latency::total     61835000                       # number of ReadCleanReq miss cycles
system.l2.ReadCleanReq_accesses::.cpu.inst         4979                       # number of ReadCleanReq accesses(hits+misses)
system.l2.ReadCleanReq_accesses::total           4979                       # number of ReadCleanReq accesses(hits+misses)
system.l2.ReadCleanReq_miss_rate::.cpu.inst     0.123519                       # miss rate for ReadCleanReq accesses
system.l2.ReadCleanReq_miss_rate::total      0.123519                       # miss rate for ReadCleanReq accesses
system.l2.ReadCleanReq_avg_miss_latency::.cpu.inst 100544.715447                       # average ReadCleanReq miss latency
system.l2.ReadCleanReq_avg_miss_latency::total 100544.715447                       # average ReadCleanReq miss latency
system.l2.ReadCleanReq_mshr_hits::.cpu.inst            1                       # number of ReadCleanReq MSHR hits
system.l2.ReadCleanReq_mshr_hits::total             1                       # number of ReadCleanReq MSHR hits
system.l2.ReadCleanReq_mshr_misses::.cpu.inst          614                       # number of ReadCleanReq MSHR misses
system.l2.ReadCleanReq_mshr_misses::total          614                       # number of ReadCleanReq MSHR misses
system.l2.ReadCleanReq_mshr_miss_latency::.cpu.inst     49452000                       # number of ReadCleanReq MSHR miss cycles
system.l2.ReadCleanReq_mshr_miss_latency::total     49452000                       # number of ReadCleanReq MSHR miss cycles
system.l2.ReadCleanReq_mshr_miss_rate::.cpu.inst     0.123318                       # mshr miss rate for ReadCleanReq accesses
system.l2.ReadCleanReq_mshr_miss_rate::total     0.123318                       # mshr miss rate for ReadCleanReq accesses
system.l2.ReadCleanReq_avg_mshr_miss_latency::.cpu.inst 80540.716612                       # average ReadCleanReq mshr miss latency
system.l2.ReadCleanReq_avg_mshr_miss_latency::total 80540.716612                       # average ReadCleanReq mshr miss latency
system.l2.ReadSharedReq_hits::.cpu.data         47500                       # number of ReadSharedReq hits
system.l2.ReadSharedReq_hits::total             47500                       # number of ReadSharedReq hits
system.l2.ReadSharedReq_misses::.cpu.data          288                       # number of ReadSharedReq misses
system.l2.ReadSharedReq_misses::total             288                       # number of ReadSharedReq misses
system.l2.ReadSharedReq_miss_latency::.cpu.data     31874000                       # number of ReadSharedReq miss cycles
system.l2.ReadSharedReq_miss_latency::total     31874000                       # number of ReadSharedReq miss cycles
system.l2.ReadSharedReq_accesses::.cpu.data        47788                       # number of ReadSharedReq accesses(hits+misses)
system.l2.ReadSharedReq_accesses::total         47788                       # number of ReadSharedReq accesses(hits+misses)
system.l2.ReadSharedReq_miss_rate::.cpu.data     0.006027                       # miss rate for ReadSharedReq accesses
system.l2.ReadSharedReq_miss_rate::total     0.006027                       # miss rate for ReadSharedReq accesses
system.l2.ReadSharedReq_avg_miss_latency::.cpu.data 110673.611111                       # average ReadSharedReq miss latency
system.l2.ReadSharedReq_avg_miss_latency::total 110673.611111                       # average ReadSharedReq miss latency
system.l2.ReadSharedReq_mshr_hits::.cpu.data            5                       # number of ReadSharedReq MSHR hits
system.l2.ReadSharedReq_mshr_hits::total            5                       # number of ReadSharedReq MSHR hits
system.l2.ReadSharedReq_mshr_misses::.cpu.data          283                       # number of ReadSharedReq MSHR misses
system.l2.ReadSharedReq_mshr_misses::total          283                       # number of ReadSharedReq MSHR misses
system.l2.ReadSharedReq_mshr_miss_latency::.cpu.data     25809000                       # number of ReadSharedReq MSHR miss cycles
system.l2.ReadSharedReq_mshr_miss_latency::total     25809000                       # number of ReadSharedReq MSHR miss cycles
system.l2.ReadSharedReq_mshr_miss_rate::.cpu.data     0.005922                       # mshr miss rate for ReadSharedReq accesses
system.l2.ReadSharedReq_mshr_miss_rate::total     0.005922                       # mshr miss rate for ReadSharedReq accesses
system.l2.ReadSharedReq_avg_mshr_miss_latency::.cpu.data 91197.879859                       # average ReadSharedReq mshr miss latency
system.l2.ReadSharedReq_avg_mshr_miss_latency::total 91197.879859                       # average ReadSharedReq mshr miss latency
system.l2.power_state.pwrStateResidencyTicks::UNDEFINED 707972272000                       # Cumulative time (in ticks) in various power states
system.l2.tags.tagsinuse                  8121.519395                       # Cycle average of tags in use
system.l2.tags.total_refs                    10632532                       # Total number of references to valid blocks.
system.l2.tags.sampled_refs                   5264031                       # Sample count of references to valid blocks.
system.l2.tags.avg_refs                      2.019846                       # Average number of references to valid blocks.
system.l2.tags.warmup_cycle                     87000                       # Cycle when the warmup percentage was hit.
system.l2.tags.occ_blocks::.writebacks       0.149518                       # Average occupied blocks per requestor
system.l2.tags.occ_blocks::.cpu.inst         4.438401                       # Average occupied blocks per requestor
system.l2.tags.occ_blocks::.cpu.data      8116.931476                       # Average occupied blocks per requestor
system.l2.tags.occ_percent::.writebacks      0.000018                       # Average percentage of cache occupancy
system.l2.tags.occ_percent::.cpu.inst        0.000542                       # Average percentage of cache occupancy
system.l2.tags.occ_percent::.cpu.data        0.990836                       # Average percentage of cache occupancy
system.l2.tags.occ_percent::total            0.991396                       # Average percentage of cache occupancy
system.l2.tags.occ_task_id_blocks::1024          8192                       # Occupied blocks per task id
system.l2.tags.age_task_id_blocks_1024::0           76                       # Occupied blocks per task id
system.l2.tags.age_task_id_blocks_1024::1          679                       # Occupied blocks per task id
system.l2.tags.age_task_id_blocks_1024::2         6780                       # Occupied blocks per task id
system.l2.tags.age_task_id_blocks_1024::3          657                       # Occupied blocks per task id
system.l2.tags.occ_task_id_percent::1024            1                       # Percentage of cache occupancy per task id
system.l2.tags.tag_accesses                  26529107                       # Number of tag accesses
system.l2.tags.data_accesses                 26529107                       # Number of data accesses
system.l2.tags.power_state.pwrStateResidencyTicks::UNDEFINED 707972272000                       # Cumulative time (in ticks) in various power states
system.mem_ctrls.avgPriority_.writebacks::samples   5254853.00                       # Average QoS priority value for accepted requests
system.mem_ctrls.avgPriority_.cpu.inst::samples       614.00                       # Average QoS priority value for accepted requests
system.mem_ctrls.avgPriority_.cpu.data::samples   5263299.00                       # Average QoS priority value for accepted requests
system.mem_ctrls.priorityMinLatency      0.000000018750                       # per QoS priority minimum request to response latency (s)
system.mem_ctrls.priorityMaxLatency      0.015664090500                       # per QoS priority maximum request to response latency (s)
system.mem_ctrls.numReadWriteTurnArounds       327946                       # Number of turnarounds from READ to WRITE
system.mem_ctrls.numWriteReadTurnArounds       327946                       # Number of turnarounds from WRITE to READ
system.mem_ctrls.numStayReadState            15633181                       # Number of times bus staying in READ state
system.mem_ctrls.numStayWriteState            4928263                       # Number of times bus staying in WRITE state
system.mem_ctrls.readReqs                     5263913                       # Number of read requests accepted
system.mem_ctrls.writeReqs                    5254853                       # Number of write requests accepted
system.mem_ctrls.readBursts                   5263913                       # Number of controller read bursts, including those serviced by the write queue
system.mem_ctrls.writeBursts                  5254853                       # Number of controller write bursts, including those merged in the write queue
system.mem_ctrls.servicedByWrQ                      0                       # Number of controller read bursts serviced by the write queue
system.mem_ctrls.mergedWrBursts                     0                       # Number of controller write bursts merged with an existing one
system.mem_ctrls.neitherReadNorWriteReqs            0                       # Number of requests that are neither read nor write
system.mem_ctrls.avgRdQLen                       1.00                       # Average read queue length when enqueuing
system.mem_ctrls.avgWrQLen                      25.50                       # Average write queue length when enqueuing
system.mem_ctrls.numRdRetry                         0                       # Number of times read queue was full causing retry
system.mem_ctrls.numWrRetry                         0                       # Number of times write queue was full causing retry
system.mem_ctrls.readPktSize::0                     0                       # Read request sizes (log2)
system.mem_ctrls.readPktSize::1                     0                       # Read request sizes (log2)
system.mem_ctrls.readPktSize::2                     0                       # Read request sizes (log2)
system.mem_ctrls.readPktSize::3                     0                       # Read request sizes (log2)
system.mem_ctrls.readPktSize::4                     0                       # Read request sizes (log2)
system.mem_ctrls.readPktSize::5                     0                       # Read request sizes (log2)
system.mem_ctrls.readPktSize::6               5263913                       # Read request sizes (log2)
system.mem_ctrls.writePktSize::0                    0                       # Write request sizes (log2)
system.mem_ctrls.writePktSize::1                    0                       # Write request sizes (log2)
system.mem_ctrls.writePktSize::2                    0                       # Write request sizes (log2)
system.mem_ctrls.writePktSize::3                    0                       # Write request sizes (log2)
system.mem_ctrls.writePktSize::4                    0                       # Write request sizes (log2)
system.mem_ctrls.writePktSize::5                    0                       # Write request sizes (log2)
system.mem_ctrls.writePktSize::6              5254853                       # Write request sizes (log2)
system.mem_ctrls.rdQLenPdf::0                 5263657                       # What read queue length does an incoming req see
system.mem_ctrls.rdQLenPdf::1                     232                       # What read queue length does an incoming req see
system.mem_ctrls.rdQLenPdf::2                      23                       # What read queue length does an incoming req see
system.mem_ctrls.rdQLenPdf::3                       1                       # What read queue length does an incoming req see
system.mem_ctrls.rdQLenPdf::4                       0                       # What read queue length does an incoming req see
system.mem_ctrls.rdQLenPdf::5                       0                       # What read queue length does an incoming req see
system.mem_ctrls.rdQLenPdf::6                       0                       # What read queue length does an incoming req see
system.mem_ctrls.rdQLenPdf::7                       0                       # What read queue length does an incoming req see
system.mem_ctrls.rdQLenPdf::8                       0                       # What read queue length does an incoming req see
system.mem_ctrls.rdQLenPdf::9                       0                       # What read queue length does an incoming req see
[...]
system.mem_ctrls.dram.bw_write::.writebacks    475033565                       # Write bandwidth from this memory (bytes/s)
system.mem_ctrls.dram.bw_write::total       475033565                       # Write bandwidth from this memory (bytes/s)
system.mem_ctrls.dram.bw_total::.writebacks    475033565                       # Total bandwidth to/from this memory (bytes/s)
system.mem_ctrls.dram.bw_total::.cpu.inst        55505                       # Total bandwidth to/from this memory (bytes/s)
system.mem_ctrls.dram.bw_total::.cpu.data    475797075                       # Total bandwidth to/from this memory (bytes/s)
system.mem_ctrls.dram.bw_total::total       950886144                       # Total bandwidth to/from this memory (bytes/s)
system.mem_ctrls.dram.readBursts              5263913                       # Number of DRAM read bursts
system.mem_ctrls.dram.writeBursts             5254827                       # Number of DRAM write bursts
system.mem_ctrls.dram.perBankRdBursts::0       329032                       # Per bank write bursts
system.mem_ctrls.dram.perBankRdBursts::1       329102                       # Per bank write bursts
system.mem_ctrls.dram.perBankRdBursts::2       329105                       # Per bank write bursts
system.mem_ctrls.dram.perBankRdBursts::3       329008                       # Per bank write bursts
system.mem_ctrls.dram.perBankRdBursts::4       329023                       # Per bank write bursts
system.mem_ctrls.dram.perBankRdBursts::5       329065                       # Per bank write bursts
system.mem_ctrls.dram.perBankRdBursts::6       329082                       # Per bank write bursts
system.mem_ctrls.dram.perBankRdBursts::7       328936                       # Per bank write bursts
system.mem_ctrls.dram.perBankRdBursts::8       328902                       # Per bank write bursts
system.mem_ctrls.dram.perBankRdBursts::9       328869                       # Per bank write bursts
system.mem_ctrls.dram.perBankRdBursts::10       328913                       # Per bank write bursts
system.mem_ctrls.dram.perBankRdBursts::11       328963                       # Per bank write bursts
system.mem_ctrls.dram.perBankRdBursts::12       329028                       # Per bank write bursts
system.mem_ctrls.dram.perBankRdBursts::13       329022                       # Per bank write bursts
system.mem_ctrls.dram.perBankRdBursts::14       329057                       # Per bank write bursts
system.mem_ctrls.dram.perBankRdBursts::15       328806                       # Per bank write bursts
system.mem_ctrls.dram.perBankWrBursts::0       328392                       # Per bank write bursts
system.mem_ctrls.dram.perBankWrBursts::1       328500                       # Per bank write bursts
system.mem_ctrls.dram.perBankWrBursts::2       328540                       # Per bank write bursts
system.mem_ctrls.dram.perBankWrBursts::3       328466                       # Per bank write bursts
system.mem_ctrls.dram.perBankWrBursts::4       328505                       # Per bank write bursts
system.mem_ctrls.dram.perBankWrBursts::5       328509                       # Per bank write bursts
system.mem_ctrls.dram.perBankWrBursts::6       328522                       # Per bank write bursts
system.mem_ctrls.dram.perBankWrBursts::7       328408                       # Per bank write bursts
system.mem_ctrls.dram.perBankWrBursts::8       328320                       # Per bank write bursts
system.mem_ctrls.dram.perBankWrBursts::9       328320                       # Per bank write bursts
system.mem_ctrls.dram.perBankWrBursts::10       328320                       # Per bank write bursts
system.mem_ctrls.dram.perBankWrBursts::11       328394                       # Per bank write bursts
system.mem_ctrls.dram.perBankWrBursts::12       328466                       # Per bank write bursts
system.mem_ctrls.dram.perBankWrBursts::13       328446                       # Per bank write bursts
system.mem_ctrls.dram.perBankWrBursts::14       328454                       # Per bank write bursts
system.mem_ctrls.dram.perBankWrBursts::15       328265                       # Per bank write bursts
system.mem_ctrls.dram.totQLat             52458412000                       # Total ticks spent queuing
system.mem_ctrls.dram.totBusLat           26319565000                       # Total ticks spent in databus transfers
system.mem_ctrls.dram.totMemAccLat       151156780750                       # Total ticks spent from burst creation until serviced by the DRAM
system.mem_ctrls.dram.avgQLat                 9965.67                       # Average queueing delay per DRAM burst
system.mem_ctrls.dram.avgBusLat               5000.00                       # Average bus latency per DRAM burst
system.mem_ctrls.dram.avgMemAccLat           28715.67                       # Average memory access latency per DRAM burst
system.mem_ctrls.dram.readRowHits             4808545                       # Number of row buffer hits during reads
system.mem_ctrls.dram.writeRowHits            4886615                       # Number of row buffer hits during writes
system.mem_ctrls.dram.readRowHitRate            91.35                       # Row buffer hit rate for reads
system.mem_ctrls.dram.writeRowHitRate           92.99                       # Row buffer hit rate for writes
system.mem_ctrls.dram.bytesPerActivate::samples       823579                       # Bytes accessed per row activation
system.mem_ctrls.dram.bytesPerActivate::mean   817.406291                       # Bytes accessed per row activation
system.mem_ctrls.dram.bytesPerActivate::gmean   684.876471                       # Bytes accessed per row activation
system.mem_ctrls.dram.bytesPerActivate::stdev   321.802398                       # Bytes accessed per row activation
system.mem_ctrls.dram.bytesPerActivate::0-127        42794      5.20%      5.20% # Bytes accessed per row activation
system.mem_ctrls.dram.bytesPerActivate::128-255        38460      4.67%      9.87% # Bytes accessed per row activation
system.mem_ctrls.dram.bytesPerActivate::256-383        35751      4.34%     14.21% # Bytes accessed per row activation
system.mem_ctrls.dram.bytesPerActivate::384-511        44220      5.37%     19.58% # Bytes accessed per row activation
system.mem_ctrls.dram.bytesPerActivate::512-639        31342      3.81%     23.38% # Bytes accessed per row activation
system.mem_ctrls.dram.bytesPerActivate::640-767        41710      5.06%     28.45% # Bytes accessed per row activation
system.mem_ctrls.dram.bytesPerActivate::768-895        28047      3.41%     31.85% # Bytes accessed per row activation
system.mem_ctrls.dram.bytesPerActivate::896-1023        52804      6.41%     38.26% # Bytes accessed per row activation
system.mem_ctrls.dram.bytesPerActivate::1024-1151       508451     61.74%    100.00% # Bytes accessed per row activation
system.mem_ctrls.dram.bytesPerActivate::total       823579                       # Bytes accessed per row activation
system.mem_ctrls.dram.bytesRead             336890432                       # Total number of bytes read from DRAM
system.mem_ctrls.dram.bytesWritten          336308928                       # Total number of bytes written to DRAM
system.mem_ctrls.dram.avgRdBW              475.852580                       # Average DRAM read bandwidth in MiBytes/s
system.mem_ctrls.dram.avgWrBW              475.031214                       # Average DRAM write bandwidth in MiBytes/s
system.mem_ctrls.dram.peakBW                 12800.00                       # Theoretical peak bandwidth in MiByte/s
system.mem_ctrls.dram.busUtil                    7.43                       # Data bus utilization in percentage
system.mem_ctrls.dram.busUtilRead                3.72                       # Data bus utilization in percentage for reads
system.mem_ctrls.dram.busUtilWrite               3.71                       # Data bus utilization in percentage for writes
system.mem_ctrls.dram.pageHitRate               92.17                       # Row buffer hit rate, read and write combined
system.mem_ctrls.dram.power_state.pwrStateResidencyTicks::UNDEFINED 707972272000                       # Cumulative time (in ticks) in various power states
system.mem_ctrls.dram.rank0.actEnergy      2941922760                       # Energy for activate commands per rank (pJ)
system.mem_ctrls.dram.rank0.preEnergy      1563665235                       # Energy for precharge commands per rank (pJ)
system.mem_ctrls.dram.rank0.readEnergy    18795000420                       # Energy for read commands per rank (pJ)
system.mem_ctrls.dram.rank0.writeEnergy   13717335240                       # Energy for write commands per rank (pJ)
system.mem_ctrls.dram.rank0.refreshEnergy 55886142000.000008                       # Energy for refresh commands per rank (pJ)
system.mem_ctrls.dram.rank0.actBackEnergy 165967858740                       # Energy for active background per rank (pJ)
system.mem_ctrls.dram.rank0.preBackEnergy 132098945280                       # Energy for precharge background per rank (pJ)
system.mem_ctrls.dram.rank0.actPowerDownEnergy            0                       # Energy for active power-down per rank (pJ)
system.mem_ctrls.dram.rank0.prePowerDownEnergy            0                       # Energy for precharge power-down per rank (pJ)
system.mem_ctrls.dram.rank0.selfRefreshEnergy            0                       # Energy for self refresh per rank (pJ)
system.mem_ctrls.dram.rank0.totalEnergy  390970869675                       # Total energy per rank (pJ)
system.mem_ctrls.dram.rank0.averagePower   552.240370                       # Core power per rank (mW)
system.mem_ctrls.dram.rank0.totalIdleTime            0                       # Total Idle time Per DRAM Rank
system.mem_ctrls.dram.rank0.pwrStateTime::IDLE 338913389500                       # Time in different power states
system.mem_ctrls.dram.rank0.pwrStateTime::REF  23640500000                       # Time in different power states
system.mem_ctrls.dram.rank0.pwrStateTime::SREF            0                       # Time in different power states
system.mem_ctrls.dram.rank0.pwrStateTime::PRE_PDN            0                       # Time in different power states
system.mem_ctrls.dram.rank0.pwrStateTime::ACT 345418382500                       # Time in different power states
system.mem_ctrls.dram.rank0.pwrStateTime::ACT_PDN            0                       # Time in different power states
system.mem_ctrls.dram.rank1.actEnergy      2938438440                       # Energy for activate commands per rank (pJ)
system.mem_ctrls.dram.rank1.preEnergy      1561817070                       # Energy for precharge commands per rank (pJ)
system.mem_ctrls.dram.rank1.readEnergy    18789338400                       # Energy for read commands per rank (pJ)
system.mem_ctrls.dram.rank1.writeEnergy   13712861700                       # Energy for write commands per rank (pJ)
system.mem_ctrls.dram.rank1.refreshEnergy 55886142000.000008                       # Energy for refresh commands per rank (pJ)
system.mem_ctrls.dram.rank1.actBackEnergy 165590974170                       # Energy for active background per rank (pJ)
system.mem_ctrls.dram.rank1.preBackEnergy 132416321760                       # Energy for precharge background per rank (pJ)
system.mem_ctrls.dram.rank1.actPowerDownEnergy            0                       # Energy for active power-down per rank (pJ)
system.mem_ctrls.dram.rank1.prePowerDownEnergy            0                       # Energy for precharge power-down per rank (pJ)
system.mem_ctrls.dram.rank1.selfRefreshEnergy            0                       # Energy for self refresh per rank (pJ)
system.mem_ctrls.dram.rank1.totalEnergy  390895893540                       # Total energy per rank (pJ)
system.mem_ctrls.dram.rank1.averagePower   552.134468                       # Core power per rank (mW)
system.mem_ctrls.dram.rank1.totalIdleTime            0                       # Total Idle time Per DRAM Rank
system.mem_ctrls.dram.rank1.pwrStateTime::IDLE 339734735250                       # Time in different power states
system.mem_ctrls.dram.rank1.pwrStateTime::REF  23640500000                       # Time in different power states
system.mem_ctrls.dram.rank1.pwrStateTime::SREF            0                       # Time in different power states
system.mem_ctrls.dram.rank1.pwrStateTime::PRE_PDN            0                       # Time in different power states
system.mem_ctrls.dram.rank1.pwrStateTime::ACT 344597036750                       # Time in different power states
system.mem_ctrls.dram.rank1.pwrStateTime::ACT_PDN            0                       # Time in different power states
system.mem_ctrls.power_state.pwrStateResidencyTicks::UNDEFINED 707972272000                       # Cumulative time (in ticks) in various power states
system.membus.trans_dist::ReadResp                897                       # Transaction distribution
system.membus.trans_dist::WritebackDirty      5254853                       # Transaction distribution
system.membus.trans_dist::CleanEvict              731                       # Transaction distribution
system.membus.trans_dist::ReadExReq           5263016                       # Transaction distribution
system.membus.trans_dist::ReadExResp          5263016                       # Transaction distribution
system.membus.trans_dist::ReadSharedReq           897                       # Transaction distribution
system.membus.pkt_count_system.l2.mem_side_port::system.mem_ctrls.port     15783410                       # Packet count per connected requestor and responder (bytes)
system.membus.pkt_count::total               15783410                       # Packet count per connected requestor and responder (bytes)
system.membus.pkt_size_system.l2.mem_side_port::system.mem_ctrls.port    673201024                       # Cumulative packet size per connected requestor and responder (bytes)
system.membus.pkt_size::total               673201024                       # Cumulative packet size per connected requestor and responder (bytes)
system.membus.snoops                                0                       # Total snoops (count)
system.membus.snoopTraffic                          0                       # Total snoop traffic (bytes)
system.membus.snoop_fanout::samples           5263913                       # Request fanout histogram
system.membus.snoop_fanout::mean                    0                       # Request fanout histogram
system.membus.snoop_fanout::stdev                   0                       # Request fanout histogram
system.membus.snoop_fanout::underflows              0      0.00%      0.00% # Request fanout histogram
system.membus.snoop_fanout::0                 5263913    100.00%    100.00% # Request fanout histogram
system.membus.snoop_fanout::1                       0      0.00%    100.00% # Request fanout histogram
system.membus.snoop_fanout::overflows               0      0.00%    100.00% # Request fanout histogram
system.membus.snoop_fanout::min_value               0                       # Request fanout histogram
system.membus.snoop_fanout::max_value               0                       # Request fanout histogram
system.membus.snoop_fanout::total             5263913                       # Request fanout histogram
system.membus.power_state.pwrStateResidencyTicks::UNDEFINED 707972272000                       # Cumulative time (in ticks) in various power states
system.membus.reqLayer0.occupancy         31538909000                       # Layer occupancy (ticks)
system.membus.reqLayer0.utilization               4.5                       # Layer utilization (%)
system.membus.respLayer1.occupancy        27698680000                       # Layer occupancy (ticks)
system.membus.respLayer1.utilization              3.9                       # Layer utilization (%)
system.tol2bus.trans_dist::ReadResp             52767                       # Transaction distribution
system.tol2bus.trans_dist::WritebackDirty     10541407                       # Transaction distribution
system.tol2bus.trans_dist::WritebackClean         4851                       # Transaction distribution
system.tol2bus.trans_dist::CleanEvict           25410                       # Transaction distribution
system.tol2bus.trans_dist::ReadExReq          5264214                       # Transaction distribution
system.tol2bus.trans_dist::ReadExResp         5264214                       # Transaction distribution
system.tol2bus.trans_dist::ReadCleanReq          4979                       # Transaction distribution
system.tol2bus.trans_dist::ReadSharedReq        47788                       # Transaction distribution
system.tol2bus.pkt_count_system.cpu.icache.mem_side_port::system.l2.cpu_side_port        14809                       # Packet count per connected requestor and responder (bytes)
system.tol2bus.pkt_count_system.cpu.dcache.mem_side_port::system.l2.cpu_side_port     15934982                       # Packet count per connected requestor and responder (bytes)
system.tol2bus.pkt_count::total              15949791                       # Packet count per connected requestor and responder (bytes)
system.tol2bus.pkt_size_system.cpu.icache.mem_side_port::system.l2.cpu_side_port       629120                       # Cumulative packet size per connected requestor and responder (bytes)
system.tol2bus.pkt_size_system.cpu.dcache.mem_side_port::system.l2.cpu_side_port    678307584                       # Cumulative packet size per connected requestor and responder (bytes)
system.tol2bus.pkt_size::total              678936704                       # Cumulative packet size per connected requestor and responder (bytes)
system.tol2bus.snoops                         5255839                       # Total snoops (count)
system.tol2bus.snoopTraffic                 336310592                       # Total snoop traffic (bytes)
system.tol2bus.snoop_fanout::samples         10572820                       # Request fanout histogram
system.tol2bus.snoop_fanout::mean            0.000050                       # Request fanout histogram
system.tol2bus.snoop_fanout::stdev           0.007060                       # Request fanout histogram
system.tol2bus.snoop_fanout::underflows             0      0.00%      0.00% # Request fanout histogram
system.tol2bus.snoop_fanout::0               10572293    100.00%    100.00% # Request fanout histogram
system.tol2bus.snoop_fanout::1                    527      0.00%    100.00% # Request fanout histogram
system.tol2bus.snoop_fanout::2                      0      0.00%    100.00% # Request fanout histogram
system.tol2bus.snoop_fanout::overflows              0      0.00%    100.00% # Request fanout histogram
system.tol2bus.snoop_fanout::min_value              0                       # Request fanout histogram
system.tol2bus.snoop_fanout::max_value              1                       # Request fanout histogram
system.tol2bus.snoop_fanout::total           10572820                       # Request fanout histogram
system.tol2bus.power_state.pwrStateResidencyTicks::UNDEFINED 707972272000                       # Cumulative time (in ticks) in various power states
system.tol2bus.reqLayer0.occupancy        21215620000                       # Layer occupancy (ticks)
system.tol2bus.reqLayer0.utilization              3.0                       # Layer utilization (%)
system.tol2bus.respLayer0.occupancy          14937999                       # Layer occupancy (ticks)
system.tol2bus.respLayer0.utilization             0.0                       # Layer utilization (%)
system.tol2bus.respLayer1.occupancy       15936011994                       # Layer occupancy (ticks)
system.tol2bus.respLayer1.utilization             2.3                       # Layer utilization (%)
system.voltage_domain.voltage                       1                       # Voltage in Volts

---------- End Simulation Statistics   ----------
