
---------- Begin Simulation Statistics ----------
final_tick                               158932664000                       # Number of ticks from beginning of simulation (restored from checkpoints and never reset)
host_inst_rate                                 370434                       # Simulator instruction rate (inst/s)
host_mem_usage                                 661116                       # Number of bytes of host memory used
host_op_rate                                   405373                       # Simulator op (including micro ops) rate (op/s)
host_seconds                                   269.95                       # Real time elapsed on the host
host_tick_rate                              588740329                       # Simulator tick rate (ticks/s)
sim_freq                                 1000000000000                       # Frequency of simulated ticks
sim_insts                                   100000000                       # Number of instructions simulated
sim_ops                                     109431833                       # Number of ops (including micro ops) simulated
sim_seconds                                  0.158933                       # Number of seconds simulated
sim_ticks                                158932664000                       # Number of ticks simulated
system.cpu.committedInsts                   100000000                       # Number of instructions committed
system.cpu.committedOps                     109431833                       # Number of ops (including micro ops) committed
system.cpu.cpi                               1.589327                       # CPI: cycles per instruction
system.cpu.discardedOps                        691950                       # Number of ops (including micro ops) which were discarded before commit
system.cpu.idleCycles                        31379616                       # Total number of cycles that the object has spent stopped
system.cpu.ipc                               0.629197                       # IPC: instructions per cycle
system.cpu.numCycles                        158932664                       # number of cpu cycles simulated
system.cpu.numFetchSuspends                         0                       # Number of times Execute suspended instruction fetching
system.cpu.numWorkItemsCompleted                    0                       # number of work items this cpu completed
system.cpu.numWorkItemsStarted                      0                       # number of work items this cpu started
system.cpu.op_class_0::No_OpClass                   0      0.00%      0.00% # Class of committed instruction
system.cpu.op_class_0::IntAlu                72954902     66.67%     66.67% # Class of committed instruction
system.cpu.op_class_0::IntMult                 568365      0.52%     67.19% # Class of committed instruction
system.cpu.op_class_0::IntDiv                       0      0.00%     67.19% # Class of committed instruction
system.cpu.op_class_0::FloatAdd                     0      0.00%     67.19% # Class of committed instruction
system.cpu.op_class_0::FloatCmp                     0      0.00%     67.19% # Class of committed instruction
system.cpu.op_class_0::FloatCvt                     0      0.00%     67.19% # Class of committed instruction
system.cpu.op_class_0::FloatMult                    0      0.00%     67.19% # Class of committed instruction
system.cpu.op_class_0::FloatMultAcc                 0      0.00%     67.19% # Class of committed instruction
system.cpu.op_class_0::FloatDiv                     0      0.00%     67.19% # Class of committed instruction
system.cpu.op_class_0::FloatMisc                    0      0.00%     67.19% # Class of committed instruction
system.cpu.op_class_0::FloatSqrt                    0      0.00%     67.19% # Class of committed instruction
system.cpu.op_class_0::SimdAdd                 241244      0.22%     67.41% # Class of committed instruction
system.cpu.op_class_0::SimdAddAcc                   0      0.00%     67.41% # Class of committed instruction
system.cpu.op_class_0::SimdAlu                 154714      0.14%     67.55% # Class of committed instruction
system.cpu.op_class_0::SimdCmp                 120622      0.11%     67.66% # Class of committed instruction
system.cpu.op_class_0::SimdCvt                      0      0.00%     67.66% # Class of committed instruction
system.cpu.op_class_0::SimdMisc                 44543      0.04%     67.70% # Class of committed instruction
system.cpu.op_class_0::SimdMult                     0      0.00%     67.70% # Class of committed instruction
system.cpu.op_class_0::SimdMultAcc                  0      0.00%     67.70% # Class of committed instruction
system.cpu.op_class_0::SimdShift                    0      0.00%     67.70% # Class of committed instruction
system.cpu.op_class_0::SimdShiftAcc                 0      0.00%     67.70% # Class of committed instruction
system.cpu.op_class_0::SimdDiv                      0      0.00%     67.70% # Class of committed instruction
system.cpu.op_class_0::SimdSqrt                     0      0.00%     67.70% # Class of committed instruction
system.cpu.op_class_0::SimdFloatAdd                 0      0.00%     67.70% # Class of committed instruction
system.cpu.op_class_0::SimdFloatAlu                 0      0.00%     67.70% # Class of committed instruction
system.cpu.op_class_0::SimdFloatCmp                 0      0.00%     67.70% # Class of committed instruction
system.cpu.op_class_0::SimdFloatCvt                 0      0.00%     67.70% # Class of committed instruction
system.cpu.op_class_0::SimdFloatDiv                 0      0.00%     67.70% # Class of committed instruction
system.cpu.op_class_0::SimdFloatMisc           166460      0.15%     67.85% # Class of committed instruction
system.cpu.op_class_0::SimdFloatMult                0      0.00%     67.85% # Class of committed instruction
system.cpu.op_class_0::SimdFloatMultAcc             0      0.00%     67.85% # Class of committed instruction
system.cpu.op_class_0::SimdFloatSqrt                0      0.00%     67.85% # Class of committed instruction
system.cpu.op_class_0::SimdReduceAdd                0      0.00%     67.85% # Class of committed instruction
system.cpu.op_class_0::SimdReduceAlu                0      0.00%     67.85% # Class of committed instruction
system.cpu.op_class_0::SimdReduceCmp                0      0.00%     67.85% # Class of committed instruction
system.cpu.op_class_0::SimdFloatReduceAdd            0      0.00%     67.85% # Class of committed instruction
system.cpu.op_class_0::SimdFloatReduceCmp            0      0.00%     67.85% # Class of committed instruction
system.cpu.op_class_0::SimdAes                      0      0.00%     67.85% # Class of committed instruction
system.cpu.op_class_0::SimdAesMix                   0      0.00%     67.85% # Class of committed instruction
system.cpu.op_class_0::SimdSha1Hash                 0      0.00%     67.85% # Class of committed instruction
system.cpu.op_class_0::SimdSha1Hash2                0      0.00%     67.85% # Class of committed instruction
system.cpu.op_class_0::SimdSha256Hash               0      0.00%     67.85% # Class of committed instruction
system.cpu.op_class_0::SimdSha256Hash2              0      0.00%     67.85% # Class of committed instruction
system.cpu.op_class_0::SimdShaSigma2                0      0.00%     67.85% # Class of committed instruction
system.cpu.op_class_0::SimdShaSigma3                0      0.00%     67.85% # Class of committed instruction
system.cpu.op_class_0::SimdPredAlu                  0      0.00%     67.85% # Class of committed instruction
system.cpu.op_class_0::MemRead               20646335     18.87%     86.72% # Class of committed instruction
system.cpu.op_class_0::MemWrite              14534648     13.28%    100.00% # Class of committed instruction
system.cpu.op_class_0::FloatMemRead                 0      0.00%    100.00% # Class of committed instruction
system.cpu.op_class_0::FloatMemWrite                0      0.00%    100.00% # Class of committed instruction
system.cpu.op_class_0::IprAccess                    0      0.00%    100.00% # Class of committed instruction
system.cpu.op_class_0::InstPrefetch                 0      0.00%    100.00% # Class of committed instruction
system.cpu.op_class_0::total                109431833                       # Class of committed instruction
system.cpu.tickCycles                       127553048                       # Number of cycles that the object actually ticked
system.cpu.workload.numSyscalls                    86                       # Number of system calls
system.membus.snoop_filter.hit_multi_requests            0                       # Number of requests hitting in the snoop filter with multiple (>1) holders of the requested data.
system.membus.snoop_filter.hit_multi_snoops            0                       # Number of snoops hitting in the snoop filter with multiple (>1) holders of the requested data.
system.membus.snoop_filter.hit_single_requests        38389                       # Number of requests hitting in the snoop filter with a single holder of the requested data.
system.membus.snoop_filter.hit_single_snoops            0                       # Number of snoops hitting in the snoop filter with a single holder of the requested data.
system.membus.snoop_filter.tot_requests         85146                       # Total number of requests made to the snoop filter.
system.membus.snoop_filter.tot_snoops               0                       # Total number of snoops made to the snoop filter.
system.tol2bus.snoop_filter.hit_multi_requests       129480                       # Number of requests hitting in the snoop filter with multiple (>1) holders of the requested data.
system.tol2bus.snoop_filter.hit_multi_snoops           16                       # Number of snoops hitting in the snoop filter with multiple (>1) holders of the requested data.
system.tol2bus.snoop_filter.hit_single_requests      2143863                       # Number of requests hitting in the snoop filter with a single holder of the requested data.
system.tol2bus.snoop_filter.hit_single_snoops          945                       # Number of snoops hitting in the snoop filter with a single holder of the requested data.
system.tol2bus.snoop_filter.tot_requests      4288970                       # Total number of requests made to the snoop filter.
system.tol2bus.snoop_filter.tot_snoops            961                       # Total number of snoops made to the snoop filter.
system.clk_domain.clock                          1000                       # Clock period in ticks
system.cpu.branchPred.lookups                20405294                       # Number of BP lookups
system.cpu.branchPred.condPredicted          16343071                       # Number of conditional branches predicted
system.cpu.branchPred.condIncorrect            142866                       # Number of conditional branches incorrect
system.cpu.branchPred.BTBLookups              8781795                       # Number of BTB lookups
system.cpu.branchPred.BTBHits                 8691177                       # Number of BTB hits
system.cpu.branchPred.BTBHitPct             98.968115                       # BTB Hit Percentage
system.cpu.branchPred.RASUsed                 1050451                       # Number of times the RAS was used to get a target.
system.cpu.branchPred.RASIncorrect                312                       # Number of incorrect RAS predictions.
system.cpu.branchPred.indirectLookups          433985                       # Number of indirect predictor lookups.
system.cpu.branchPred.indirectHits             300038                       # Number of indirect target hits.
system.cpu.branchPred.indirectMisses           133947                       # Number of indirect misses.
system.cpu.branchPred.indirectMispredicted         1040                       # Number of mispredicted indirect branches.
system.cpu.dcache.demand_hits::.cpu.data     35634451                       # number of demand (read+write) hits
system.cpu.dcache.demand_hits::total         35634451                       # number of demand (read+write) hits
system.cpu.dcache.overall_hits::.cpu.data     35637762                       # number of overall hits
system.cpu.dcache.overall_hits::total        35637762                       # number of overall hits
system.cpu.dcache.demand_misses::.cpu.data        97314                       # number of demand (read+write) misses
system.cpu.dcache.demand_misses::total          97314                       # number of demand (read+write) misses
system.cpu.dcache.overall_misses::.cpu.data        97376                       # number of overall misses
system.cpu.dcache.overall_misses::total         97376                       # number of overall misses
system.cpu.dcache.demand_miss_latency::.cpu.data   7243444000                       # number of demand (read+write) miss cycles
system.cpu.dcache.demand_miss_latency::total   7243444000                       # number of demand (read+write) miss cycles
system.cpu.dcache.overall_miss_latency::.cpu.data   7243444000                       # number of overall miss cycles
system.cpu.dcache.overall_miss_latency::total   7243444000                       # number of overall miss cycles
system.cpu.dcache.demand_accesses::.cpu.data     35731765                       # number of demand (read+write) accesses
system.cpu.dcache.demand_accesses::total     35731765                       # number of demand (read+write) accesses
system.cpu.dcache.overall_accesses::.cpu.data     35735138                       # number of overall (read+write) accesses
system.cpu.dcache.overall_accesses::total     35735138                       # number of overall (read+write) accesses
system.cpu.dcache.demand_miss_rate::.cpu.data     0.002723                       # miss rate for demand accesses
system.cpu.dcache.demand_miss_rate::total     0.002723                       # miss rate for demand accesses
system.cpu.dcache.overall_miss_rate::.cpu.data     0.002725                       # miss rate for overall accesses
system.cpu.dcache.overall_miss_rate::total     0.002725                       # miss rate for overall accesses
system.cpu.dcache.demand_avg_miss_latency::.cpu.data 74433.729987                       # average overall miss latency
system.cpu.dcache.demand_avg_miss_latency::total 74433.729987                       # average overall miss latency
system.cpu.dcache.overall_avg_miss_latency::.cpu.data 74386.337496                       # average overall miss latency
system.cpu.dcache.overall_avg_miss_latency::total 74386.337496                       # average overall miss latency
system.cpu.dcache.blocked_cycles::no_mshrs            0                       # number of cycles access was blocked
system.cpu.dcache.blocked_cycles::no_targets            0                       # number of cycles access was blocked
system.cpu.dcache.blocked::no_mshrs                 0                       # number of cycles access was blocked
system.cpu.dcache.blocked::no_targets               0                       # number of cycles access was blocked
system.cpu.dcache.avg_blocked_cycles::no_mshrs          nan                       # average number of cycles each access was blocked
system.cpu.dcache.avg_blocked_cycles::no_targets          nan                       # average number of cycles each access was blocked
system.cpu.dcache.writebacks::.writebacks        60114                       # number of writebacks
system.cpu.dcache.writebacks::total             60114                       # number of writebacks
system.cpu.dcache.demand_mshr_hits::.cpu.data        25645                       # number of demand (read+write) MSHR hits
system.cpu.dcache.demand_mshr_hits::total        25645                       # number of demand (read+write) MSHR hits
system.cpu.dcache.overall_mshr_hits::.cpu.data        25645                       # number of overall MSHR hits
system.cpu.dcache.overall_mshr_hits::total        25645                       # number of overall MSHR hits
system.cpu.dcache.demand_mshr_misses::.cpu.data        71669                       # number of demand (read+write) MSHR misses
system.cpu.dcache.demand_mshr_misses::total        71669                       # number of demand (read+write) MSHR misses
system.cpu.dcache.overall_mshr_misses::.cpu.data        71725                       # number of overall MSHR misses
system.cpu.dcache.overall_mshr_misses::total        71725                       # number of overall MSHR misses
system.cpu.dcache.demand_mshr_miss_latency::.cpu.data   5632420000                       # number of demand (read+write) MSHR miss cycles
system.cpu.dcache.demand_mshr_miss_latency::total   5632420000                       # number of demand (read+write) MSHR miss cycles
system.cpu.dcache.overall_mshr_miss_latency::.cpu.data   5635680000                       # number of overall MSHR miss cycles
system.cpu.dcache.overall_mshr_miss_latency::total   5635680000                       # number of overall MSHR miss cycles
system.cpu.dcache.demand_mshr_miss_rate::.cpu.data     0.002006                       # mshr miss rate for demand accesses
system.cpu.dcache.demand_mshr_miss_rate::total     0.002006                       # mshr miss rate for demand accesses
system.cpu.dcache.overall_mshr_miss_rate::.cpu.data     0.002007                       # mshr miss rate for overall accesses
system.cpu.dcache.overall_mshr_miss_rate::total     0.002007                       # mshr miss rate for overall accesses
system.cpu.dcache.demand_avg_mshr_miss_latency::.cpu.data 78589.348254                       # average overall mshr miss latency
system.cpu.dcache.demand_avg_mshr_miss_latency::total 78589.348254                       # average overall mshr miss latency
system.cpu.dcache.overall_avg_mshr_miss_latency::.cpu.data 78573.440223                       # average overall mshr miss latency
system.cpu.dcache.overall_avg_mshr_miss_latency::total 78573.440223                       # average overall mshr miss latency
system.cpu.dcache.replacements                  70703                       # number of replacements
system.cpu.dcache.ReadReq_hits::.cpu.data     21442510                       # number of ReadReq hits
system.cpu.dcache.ReadReq_hits::total        21442510                       # number of ReadReq hits
system.cpu.dcache.ReadReq_misses::.cpu.data        34660                       # number of ReadReq misses
system.cpu.dcache.ReadReq_misses::total         34660                       # number of ReadReq misses
system.cpu.dcache.ReadReq_miss_latency::.cpu.data   1612955000                       # number of ReadReq miss cycles
system.cpu.dcache.ReadReq_miss_latency::total   1612955000                       # number of ReadReq miss cycles
system.cpu.dcache.ReadReq_accesses::.cpu.data     21477170                       # number of ReadReq accesses(hits+misses)
system.cpu.dcache.ReadReq_accesses::total     21477170                       # number of ReadReq accesses(hits+misses)
system.cpu.dcache.ReadReq_miss_rate::.cpu.data     0.001614                       # miss rate for ReadReq accesses
system.cpu.dcache.ReadReq_miss_rate::total     0.001614                       # miss rate for ReadReq accesses
system.cpu.dcache.ReadReq_avg_miss_latency::.cpu.data 46536.497403                       # average ReadReq miss latency
system.cpu.dcache.ReadReq_avg_miss_latency::total 46536.497403                       # average ReadReq miss latency
system.cpu.dcache.ReadReq_mshr_hits::.cpu.data         6150                       # number of ReadReq MSHR hits
system.cpu.dcache.ReadReq_mshr_hits::total         6150                       # number of ReadReq MSHR hits
system.cpu.dcache.ReadReq_mshr_misses::.cpu.data        28510                       # number of ReadReq MSHR misses
system.cpu.dcache.ReadReq_mshr_misses::total        28510                       # number of ReadReq MSHR misses
system.cpu.dcache.ReadReq_mshr_miss_latency::.cpu.data   1356180000                       # number of ReadReq MSHR miss cycles
system.cpu.dcache.ReadReq_mshr_miss_latency::total   1356180000                       # number of ReadReq MSHR miss cycles
system.cpu.dcache.ReadReq_mshr_miss_rate::.cpu.data     0.001327                       # mshr miss rate for ReadReq accesses
system.cpu.dcache.ReadReq_mshr_miss_rate::total     0.001327                       # mshr miss rate for ReadReq accesses
system.cpu.dcache.ReadReq_avg_mshr_miss_latency::.cpu.data 47568.572431                       # average ReadReq mshr miss latency
system.cpu.dcache.ReadReq_avg_mshr_miss_latency::total 47568.572431                       # average ReadReq mshr miss latency
system.cpu.dcache.WriteReq_hits::.cpu.data     14191941                       # number of WriteReq hits
system.cpu.dcache.WriteReq_hits::total       14191941                       # number of WriteReq hits
system.cpu.dcache.WriteReq_misses::.cpu.data        62654                       # number of WriteReq misses
system.cpu.dcache.WriteReq_misses::total        62654                       # number of WriteReq misses
system.cpu.dcache.WriteReq_miss_latency::.cpu.data   5630489000                       # number of WriteReq miss cycles
system.cpu.dcache.WriteReq_miss_latency::total   5630489000                       # number of WriteReq miss cycles
system.cpu.dcache.WriteReq_accesses::.cpu.data     14254595                       # number of WriteReq accesses(hits+misses)
system.cpu.dcache.WriteReq_accesses::total     14254595                       # number of WriteReq accesses(hits+misses)
system.cpu.dcache.WriteReq_miss_rate::.cpu.data     0.004395                       # miss rate for WriteReq accesses
system.cpu.dcache.WriteReq_miss_rate::total     0.004395                       # miss rate for WriteReq accesses
system.cpu.dcache.WriteReq_avg_miss_latency::.cpu.data 89866.393207                       # average WriteReq miss latency
system.cpu.dcache.WriteReq_avg_miss_latency::total 89866.393207                       # average WriteReq miss latency
system.cpu.dcache.WriteReq_mshr_hits::.cpu.data        19495                       # number of WriteReq MSHR hits
system.cpu.dcache.WriteReq_mshr_hits::total        19495                       # number of WriteReq MSHR hits
system.cpu.dcache.WriteReq_mshr_misses::.cpu.data        43159                       # number of WriteReq MSHR misses
system.cpu.dcache.WriteReq_mshr_misses::total        43159                       # number of WriteReq MSHR misses
system.cpu.dcache.WriteReq_mshr_miss_latency::.cpu.data   4276240000                       # number of WriteReq MSHR miss cycles
system.cpu.dcache.WriteReq_mshr_miss_latency::total   4276240000                       # number of WriteReq MSHR miss cycles
system.cpu.dcache.WriteReq_mshr_miss_rate::.cpu.data     0.003028                       # mshr miss rate for WriteReq accesses
system.cpu.dcache.WriteReq_mshr_miss_rate::total     0.003028                       # mshr miss rate for WriteReq accesses
system.cpu.dcache.WriteReq_avg_mshr_miss_latency::.cpu.data 99081.072314                       # average WriteReq mshr miss latency
system.cpu.dcache.WriteReq_avg_mshr_miss_latency::total 99081.072314                       # average WriteReq mshr miss latency
system.cpu.dcache.SoftPFReq_hits::.cpu.data         3311                       # number of SoftPFReq hits
system.cpu.dcache.SoftPFReq_hits::total          3311                       # number of SoftPFReq hits
system.cpu.dcache.SoftPFReq_misses::.cpu.data           62                       # number of SoftPFReq misses
system.cpu.dcache.SoftPFReq_misses::total           62                       # number of SoftPFReq misses
system.cpu.dcache.SoftPFReq_accesses::.cpu.data         3373                       # number of SoftPFReq accesses(hits+misses)
system.cpu.dcache.SoftPFReq_accesses::total         3373                       # number of SoftPFReq accesses(hits+misses)
system.cpu.dcache.SoftPFReq_miss_rate::.cpu.data     0.018381                       # miss rate for SoftPFReq accesses
system.cpu.dcache.SoftPFReq_miss_rate::total     0.018381                       # miss rate for SoftPFReq accesses
system.cpu.dcache.SoftPFReq_mshr_misses::.cpu.data           56                       # number of SoftPFReq MSHR misses
system.cpu.dcache.SoftPFReq_mshr_misses::total           56                       # number of SoftPFReq MSHR misses
system.cpu.dcache.SoftPFReq_mshr_miss_latency::.cpu.data      3260000                       # number of SoftPFReq MSHR miss cycles
system.cpu.dcache.SoftPFReq_mshr_miss_latency::total      3260000                       # number of SoftPFReq MSHR miss cycles
system.cpu.dcache.SoftPFReq_mshr_miss_rate::.cpu.data     0.016602                       # mshr miss rate for SoftPFReq accesses
system.cpu.dcache.SoftPFReq_mshr_miss_rate::total     0.016602                       # mshr miss rate for SoftPFReq accesses
system.cpu.dcache.SoftPFReq_avg_mshr_miss_latency::.cpu.data 58214.285714                       # average SoftPFReq mshr miss latency
system.cpu.dcache.SoftPFReq_avg_mshr_miss_latency::total 58214.285714                       # average SoftPFReq mshr miss latency
system.cpu.dcache.LoadLockedReq_hits::.cpu.data        89079                       # number of LoadLockedReq hits
system.cpu.dcache.LoadLockedReq_hits::total        89079                       # number of LoadLockedReq hits
system.cpu.dcache.LoadLockedReq_misses::.cpu.data            2                       # number of LoadLockedReq misses
system.cpu.dcache.LoadLockedReq_misses::total            2                       # number of LoadLockedReq misses
system.cpu.dcache.LoadLockedReq_miss_latency::.cpu.data        52000                       # number of LoadLockedReq miss cycles
system.cpu.dcache.LoadLockedReq_miss_latency::total        52000                       # number of LoadLockedReq miss cycles
system.cpu.dcache.LoadLockedReq_accesses::.cpu.data        89081                       # number of LoadLockedReq accesses(hits+misses)
system.cpu.dcache.LoadLockedReq_accesses::total        89081                       # number of LoadLockedReq accesses(hits+misses)
system.cpu.dcache.LoadLockedReq_miss_rate::.cpu.data     0.000022                       # miss rate for LoadLockedReq accesses
system.cpu.dcache.LoadLockedReq_miss_rate::total     0.000022                       # miss rate for LoadLockedReq accesses
system.cpu.dcache.LoadLockedReq_avg_miss_latency::.cpu.data        26000                       # average LoadLockedReq miss latency
system.cpu.dcache.LoadLockedReq_avg_miss_latency::total        26000                       # average LoadLockedReq miss latency
system.cpu.dcache.LoadLockedReq_mshr_misses::.cpu.data            2                       # number of LoadLockedReq MSHR misses
system.cpu.dcache.LoadLockedReq_mshr_misses::total            2                       # number of LoadLockedReq MSHR misses
system.cpu.dcache.LoadLockedReq_mshr_miss_latency::.cpu.data        48000                       # number of LoadLockedReq MSHR miss cycles
system.cpu.dcache.LoadLockedReq_mshr_miss_latency::total        48000                       # number of LoadLockedReq MSHR miss cycles
system.cpu.dcache.LoadLockedReq_mshr_miss_rate::.cpu.data     0.000022                       # mshr miss rate for LoadLockedReq accesses
system.cpu.dcache.LoadLockedReq_mshr_miss_rate::total     0.000022                       # mshr miss rate for LoadLockedReq accesses
system.cpu.dcache.LoadLockedReq_avg_mshr_miss_latency::.cpu.data        24000                       # average LoadLockedReq mshr miss latency
system.cpu.dcache.LoadLockedReq_avg_mshr_miss_latency::total        24000                       # average LoadLockedReq mshr miss latency
system.cpu.dcache.StoreCondReq_hits::.cpu.data        89080                       # number of StoreCondReq hits
system.cpu.dcache.StoreCondReq_hits::total        89080                       # number of StoreCondReq hits
system.cpu.dcache.StoreCondReq_accesses::.cpu.data        89080                       # number of StoreCondReq accesses(hits+misses)
system.cpu.dcache.StoreCondReq_accesses::total        89080                       # number of StoreCondReq accesses(hits+misses)
system.cpu.dcache.power_state.pwrStateResidencyTicks::UNDEFINED 158932664000                       # Cumulative time (in ticks) in various power states
system.cpu.dcache.tags.tagsinuse          1020.911618                       # Cycle average of tags in use
system.cpu.dcache.tags.total_refs            35887648                       # Total number of references to valid blocks.
system.cpu.dcache.tags.sampled_refs             71727                       # Sample count of references to valid blocks.
system.cpu.dcache.tags.avg_refs            500.336665                       # Average number of references to valid blocks.
system.cpu.dcache.tags.warmup_cycle            240000                       # Cycle when the warmup percentage was hit.
system.cpu.dcache.tags.occ_blocks::.cpu.data  1020.911618                       # Average occupied blocks per requestor
system.cpu.dcache.tags.occ_percent::.cpu.data     0.996984                       # Average percentage of cache occupancy
system.cpu.dcache.tags.occ_percent::total     0.996984                       # Average percentage of cache occupancy
system.cpu.dcache.tags.occ_task_id_blocks::1024         1024                       # Occupied blocks per task id
system.cpu.dcache.tags.age_task_id_blocks_1024::0            2                       # Occupied blocks per task id
system.cpu.dcache.tags.age_task_id_blocks_1024::1           18                       # Occupied blocks per task id
system.cpu.dcache.tags.age_task_id_blocks_1024::2          181                       # Occupied blocks per task id
system.cpu.dcache.tags.age_task_id_blocks_1024::3          823                       # Occupied blocks per task id
system.cpu.dcache.tags.occ_task_id_percent::1024            1                       # Percentage of cache occupancy per task id
system.cpu.dcache.tags.tag_accesses          35985026                       # Number of tag accesses
system.cpu.dcache.tags.data_accesses         35985026                       # Number of data accesses
system.cpu.dcache.tags.power_state.pwrStateResidencyTicks::UNDEFINED 158932664000                       # Cumulative time (in ticks) in various power states
system.cpu.dtb.instHits                             0                       # ITB inst hits
system.cpu.dtb.instMisses                           0                       # ITB inst misses
system.cpu.dtb.readHits                             0                       # DTB read hits
system.cpu.dtb.readMisses                           0                       # DTB read misses
system.cpu.dtb.writeHits                            0                       # DTB write hits
system.cpu.dtb.writeMisses                          0                       # DTB write misses
system.cpu.dtb.inserts                              0                       # Number of times an entry is inserted into the TLB
system.cpu.dtb.flushTlb                             0                       # Number of times complete TLB was flushed
system.cpu.dtb.flushTlbMva                          0                       # Number of times TLB was flushed by MVA
system.cpu.dtb.flushTlbMvaAsid                      0                       # Number of times TLB was flushed by MVA & ASID
system.cpu.dtb.flushTlbAsid                         0                       # Number of times TLB was flushed by ASID
system.cpu.dtb.flushedEntries                       0                       # Number of entries that have been flushed from TLB
system.cpu.dtb.alignFaults                          0                       # Number of TLB faults due to alignment restrictions
system.cpu.dtb.prefetchFaults                       0                       # Number of TLB faults due to prefetch
system.cpu.dtb.domainFaults                         0                       # Number of TLB faults due to domain restrictions
system.cpu.dtb.permsFaults                          0                       # Number of TLB faults due to permissions restrictions
system.cpu.dtb.readAccesses                         0                       # DTB read accesses
system.cpu.dtb.writeAccesses                        0                       # DTB write accesses
system.cpu.dtb.instAccesses                         0                       # ITB inst accesses
system.cpu.dtb.hits                                 0                       # Total TLB (inst and data) hits
system.cpu.dtb.misses                               0                       # Total TLB (inst and data) misses
system.cpu.dtb.accesses                             0                       # Total TLB (inst and data) accesses
system.cpu.dtb.stage2_mmu.stage2_tlb.instHits            0                       # ITB inst hits
system.cpu.dtb.stage2_mmu.stage2_tlb.instMisses            0                       # ITB inst misses
system.cpu.dtb.stage2_mmu.stage2_tlb.readHits            0                       # DTB read hits
system.cpu.dtb.stage2_mmu.stage2_tlb.readMisses            0                       # DTB read misses
system.cpu.dtb.stage2_mmu.stage2_tlb.writeHits            0                       # DTB write hits
system.cpu.dtb.stage2_mmu.stage2_tlb.writeMisses            0                       # DTB write misses
system.cpu.dtb.stage2_mmu.stage2_tlb.inserts            0                       # Number of times an entry is inserted into the TLB
system.cpu.dtb.stage2_mmu.stage2_tlb.flushTlb            0                       # Number of times complete TLB was flushed
system.cpu.dtb.stage2_mmu.stage2_tlb.flushTlbMva            0                       # Number of times TLB was flushed by MVA
system.cpu.dtb.stage2_mmu.stage2_tlb.flushTlbMvaAsid            0                       # Number of times TLB was flushed by MVA & ASID
system.cpu.dtb.stage2_mmu.stage2_tlb.flushTlbAsid            0                       # Number of times TLB was flushed by ASID
system.cpu.dtb.stage2_mmu.stage2_tlb.flushedEntries            0                       # Number of entries that have been flushed from TLB
system.cpu.dtb.stage2_mmu.stage2_tlb.alignFaults            0                       # Number of TLB faults due to alignment restrictions
system.cpu.dtb.stage2_mmu.stage2_tlb.prefetchFaults            0                       # Number of TLB faults due to prefetch
system.cpu.dtb.stage2_mmu.stage2_tlb.domainFaults            0                       # Number of TLB faults due to domain restrictions
system.cpu.dtb.stage2_mmu.stage2_tlb.permsFaults            0                       # Number of TLB faults due to permissions restrictions
system.cpu.dtb.stage2_mmu.stage2_tlb.readAccesses            0                       # DTB read accesses
system.cpu.dtb.stage2_mmu.stage2_tlb.writeAccesses            0                       # DTB write accesses
system.cpu.dtb.stage2_mmu.stage2_tlb.instAccesses            0                       # ITB inst accesses
system.cpu.dtb.stage2_mmu.stage2_tlb.hits            0                       # Total TLB (inst and data) hits
system.cpu.dtb.stage2_mmu.stage2_tlb.misses            0                       # Total TLB (inst and data) misses
system.cpu.dtb.stage2_mmu.stage2_tlb.accesses            0                       # Total TLB (inst and data) accesses
system.cpu.dtb.stage2_mmu.stage2_tlb.walker.walks            0                       # Table walker walks requested
system.cpu.dtb.stage2_mmu.stage2_tlb.walker.requestOrigin_Requested::Data            0                       # Table walker requests started/completed, data/inst
system.cpu.dtb.stage2_mmu.stage2_tlb.walker.requestOrigin_Requested::Inst            0                       # Table walker requests started/completed, data/inst
system.cpu.dtb.stage2_mmu.stage2_tlb.walker.requestOrigin_Requested::total            0                       # Table walker requests started/completed, data/inst
system.cpu.dtb.stage2_mmu.stage2_tlb.walker.requestOrigin_Completed::Data            0                       # Table walker requests started/completed, data/inst
system.cpu.dtb.stage2_mmu.stage2_tlb.walker.requestOrigin_Completed::Inst            0                       # Table walker requests started/completed, data/inst
system.cpu.dtb.stage2_mmu.stage2_tlb.walker.requestOrigin_Completed::total            0                       # Table walker requests started/completed, data/inst
system.cpu.dtb.stage2_mmu.stage2_tlb.walker.requestOrigin::total            0                       # Table walker requests started/completed, data/inst
system.cpu.dtb.stage2_mmu.stage2_tlb.walker.power_state.pwrStateResidencyTicks::UNDEFINED 158932664000                       # Cumulative time (in ticks) in various power states
system.cpu.dtb.walker.walks                         0                       # Table walker walks requested
system.cpu.dtb.walker.requestOrigin_Requested::Data            0                       # Table walker requests started/completed, data/inst
system.cpu.dtb.walker.requestOrigin_Requested::Inst            0                       # Table walker requests started/completed, data/inst
system.cpu.dtb.walker.requestOrigin_Requested::total            0                       # Table walker requests started/completed, data/inst
system.cpu.dtb.walker.requestOrigin_Completed::Data            0                       # Table walker requests started/completed, data/inst
system.cpu.dtb.walker.requestOrigin_Completed::Inst            0                       # Table walker requests started/completed, data/inst
system.cpu.dtb.walker.requestOrigin_Completed::total            0                       # Table walker requests started/completed, data/inst
system.cpu.dtb.walker.requestOrigin::total            0                       # Table walker requests started/completed, data/inst
system.cpu.dtb.walker.power_state.pwrStateResidencyTicks::UNDEFINED 158932664000                       # Cumulative time (in ticks) in various power states
system.cpu.fetch2.intInstructions            49598604                       # Number of integer instructions successfully decoded
system.cpu.fetch2.fpInstructions                    0                       # Number of floating point instructions successfully decoded
system.cpu.fetch2.vecInstructions                   0                       # Number of SIMD instructions successfully decoded
system.cpu.fetch2.loadInstructions           17151226                       # Number of memory load instructions successfully decoded
system.cpu.fetch2.storeInstructions           9897615                       # Number of memory store instructions successfully decoded
system.cpu.fetch2.amoInstructions                   0                       # Number of memory atomic instructions successfully decoded
system.cpu.icache.demand_hits::.cpu.inst     25630164                       # number of demand (read+write) hits
system.cpu.icache.demand_hits::total         25630164                       # number of demand (read+write) hits
system.cpu.icache.overall_hits::.cpu.inst     25630164                       # number of overall hits
system.cpu.icache.overall_hits::total        25630164                       # number of overall hits
system.cpu.icache.demand_misses::.cpu.inst      2073383                       # number of demand (read+write) misses
system.cpu.icache.demand_misses::total        2073383                       # number of demand (read+write) misses
system.cpu.icache.overall_misses::.cpu.inst      2073383                       # number of overall misses
system.cpu.icache.overall_misses::total       2073383                       # number of overall misses
system.cpu.icache.demand_miss_latency::.cpu.inst  54212093000                       # number of demand (read+write) miss cycles
system.cpu.icache.demand_miss_latency::total  54212093000                       # number of demand (read+write) miss cycles
system.cpu.icache.overall_miss_latency::.cpu.inst  54212093000                       # number of overall miss cycles
system.cpu.icache.overall_miss_latency::total  54212093000                       # number of overall miss cycles
system.cpu.icache.demand_accesses::.cpu.inst     27703547                       # number of demand (read+write) accesses
system.cpu.icache.demand_accesses::total     27703547                       # number of demand (read+write) accesses
system.cpu.icache.overall_accesses::.cpu.inst     27703547                       # number of overall (read+write) accesses
system.cpu.icache.overall_accesses::total     27703547                       # number of overall (read+write) accesses
system.cpu.icache.demand_miss_rate::.cpu.inst     0.074842                       # miss rate for demand accesses
system.cpu.icache.demand_miss_rate::total     0.074842                       # miss rate for demand accesses
system.cpu.icache.overall_miss_rate::.cpu.inst     0.074842                       # miss rate for overall accesses
system.cpu.icache.overall_miss_rate::total     0.074842                       # miss rate for overall accesses
system.cpu.icache.demand_avg_miss_latency::.cpu.inst 26146.685393                       # average overall miss latency
system.cpu.icache.demand_avg_miss_latency::total 26146.685393                       # average overall miss latency
system.cpu.icache.overall_avg_miss_latency::.cpu.inst 26146.685393                       # average overall miss latency
system.cpu.icache.overall_avg_miss_latency::total 26146.685393                       # average overall miss latency
system.cpu.icache.blocked_cycles::no_mshrs            0                       # number of cycles access was blocked
system.cpu.icache.blocked_cycles::no_targets            0                       # number of cycles access was blocked
system.cpu.icache.blocked::no_mshrs                 0                       # number of cycles access was blocked
system.cpu.icache.blocked::no_targets               0                       # number of cycles access was blocked
system.cpu.icache.avg_blocked_cycles::no_mshrs          nan                       # average number of cycles each access was blocked
system.cpu.icache.avg_blocked_cycles::no_targets          nan                       # average number of cycles each access was blocked
system.cpu.icache.writebacks::.writebacks      2073157                       # number of writebacks
system.cpu.icache.writebacks::total           2073157                       # number of writebacks
system.cpu.icache.demand_mshr_misses::.cpu.inst      2073383                       # number of demand (read+write) MSHR misses
system.cpu.icache.demand_mshr_misses::total      2073383                       # number of demand (read+write) MSHR misses
system.cpu.icache.overall_mshr_misses::.cpu.inst      2073383                       # number of overall MSHR misses
system.cpu.icache.overall_mshr_misses::total      2073383                       # number of overall MSHR misses
system.cpu.icache.demand_mshr_miss_latency::.cpu.inst  50065327000                       # number of demand (read+write) MSHR miss cycles
system.cpu.icache.demand_mshr_miss_latency::total  50065327000                       # number of demand (read+write) MSHR miss cycles
system.cpu.icache.overall_mshr_miss_latency::.cpu.inst  50065327000                       # number of overall MSHR miss cycles
system.cpu.icache.overall_mshr_miss_latency::total  50065327000                       # number of overall MSHR miss cycles
system.cpu.icache.demand_mshr_miss_rate::.cpu.inst     0.074842                       # mshr miss rate for demand accesses
system.cpu.icache.demand_mshr_miss_rate::total     0.074842                       # mshr miss rate for demand accesses
system.cpu.icache.overall_mshr_miss_rate::.cpu.inst     0.074842                       # mshr miss rate for overall accesses
system.cpu.icache.overall_mshr_miss_rate::total     0.074842                       # mshr miss rate for overall accesses
system.cpu.icache.demand_avg_mshr_miss_latency::.cpu.inst 24146.685393                       # average overall mshr miss latency
system.cpu.icache.demand_avg_mshr_miss_latency::total 24146.685393                       # average overall mshr miss latency
system.cpu.icache.overall_avg_mshr_miss_latency::.cpu.inst 24146.685393                       # average overall mshr miss latency
system.cpu.icache.overall_avg_mshr_miss_latency::total 24146.685393                       # average overall mshr miss latency
system.cpu.icache.replacements                2073157                       # number of replacements
system.cpu.icache.ReadReq_hits::.cpu.inst     25630164                       # number of ReadReq hits
system.cpu.icache.ReadReq_hits::total        25630164                       # number of ReadReq hits
system.cpu.icache.ReadReq_misses::.cpu.inst      2073383                       # number of ReadReq misses
system.cpu.icache.ReadReq_misses::total       2073383                       # number of ReadReq misses
system.cpu.icache.ReadReq_miss_latency::.cpu.inst  54212093000                       # number of ReadReq miss cycles
system.cpu.icache.ReadReq_miss_latency::total  54212093000                       # number of ReadReq miss cycles
system.cpu.icache.ReadReq_accesses::.cpu.inst     27703547                       # number of ReadReq accesses(hits+misses)
system.cpu.icache.ReadReq_accesses::total     27703547                       # number of ReadReq accesses(hits+misses)
system.cpu.icache.ReadReq_miss_rate::.cpu.inst     0.074842                       # miss rate for ReadReq accesses
system.cpu.icache.ReadReq_miss_rate::total     0.074842                       # miss rate for ReadReq accesses
system.cpu.icache.ReadReq_avg_miss_latency::.cpu.inst 26146.685393                       # average ReadReq miss latency
system.cpu.icache.ReadReq_avg_miss_latency::total 26146.685393                       # average ReadReq miss latency
system.cpu.icache.ReadReq_mshr_misses::.cpu.inst      2073383                       # number of ReadReq MSHR misses
system.cpu.icache.ReadReq_mshr_misses::total      2073383                       # number of ReadReq MSHR misses
system.cpu.icache.ReadReq_mshr_miss_latency::.cpu.inst  50065327000                       # number of ReadReq MSHR miss cycles
system.cpu.icache.ReadReq_mshr_miss_latency::total  50065327000                       # number of ReadReq MSHR miss cycles
system.cpu.icache.ReadReq_mshr_miss_rate::.cpu.inst     0.074842                       # mshr miss rate for ReadReq accesses
system.cpu.icache.ReadReq_mshr_miss_rate::total     0.074842                       # mshr miss rate for ReadReq accesses
system.cpu.icache.ReadReq_avg_mshr_miss_latency::.cpu.inst 24146.685393                       # average ReadReq mshr miss latency
system.cpu.icache.ReadReq_avg_mshr_miss_latency::total 24146.685393                       # average ReadReq mshr miss latency
system.cpu.icache.power_state.pwrStateResidencyTicks::UNDEFINED 158932664000                       # Cumulative time (in ticks) in various power states
system.cpu.icache.tags.tagsinuse           225.957583                       # Cycle average of tags in use
system.cpu.icache.tags.total_refs            27703547                       # Total number of references to valid blocks.
system.cpu.icache.tags.sampled_refs           2073383                       # Sample count of references to valid blocks.
system.cpu.icache.tags.avg_refs             13.361519                       # Average number of references to valid blocks.
system.cpu.icache.tags.warmup_cycle            108000                       # Cycle when the warmup percentage was hit.
system.cpu.icache.tags.occ_blocks::.cpu.inst   225.957583                       # Average occupied blocks per requestor
system.cpu.icache.tags.occ_percent::.cpu.inst     0.882647                       # Average percentage of cache occupancy
system.cpu.icache.tags.occ_percent::total     0.882647                       # Average percentage of cache occupancy
system.cpu.icache.tags.occ_task_id_blocks::1024          226                       # Occupied blocks per task id
system.cpu.icache.tags.age_task_id_blocks_1024::0           17                       # Occupied blocks per task id
system.cpu.icache.tags.age_task_id_blocks_1024::1            1                       # Occupied blocks per task id
system.cpu.icache.tags.age_task_id_blocks_1024::3           17                       # Occupied blocks per task id
system.cpu.icache.tags.age_task_id_blocks_1024::4          191                       # Occupied blocks per task id
system.cpu.icache.tags.occ_task_id_percent::1024     0.882812                       # Percentage of cache occupancy per task id
system.cpu.icache.tags.tag_accesses          29776930                       # Number of tag accesses
system.cpu.icache.tags.data_accesses         29776930                       # Number of data accesses
system.cpu.icache.tags.power_state.pwrStateResidencyTicks::UNDEFINED 158932664000                       # Cumulative time (in ticks) in various power states
system.cpu.itb.instHits                             0                       # ITB inst hits
system.cpu.itb.instMisses                           0                       # ITB inst misses
system.cpu.itb.readHits                             0                       # DTB read hits
system.cpu.itb.readMisses                           0                       # DTB read misses
system.cpu.itb.writeHits                            0                       # DTB write hits
system.cpu.itb.writeMisses                          0                       # DTB write misses
system.cpu.itb.inserts                              0                       # Number of times an entry is inserted into the TLB
system.cpu.itb.flushTlb                             0                       # Number of times complete TLB was flushed
system.cpu.itb.flushTlbMva                          0                       # Number of times TLB was flushed by MVA
system.cpu.itb.flushTlbMvaAsid                      0                       # Number of times TLB was flushed by MVA & ASID
system.cpu.itb.flushTlbAsid                         0                       # Number of times TLB was flushed by ASID
system.cpu.itb.flushedEntries                       0                       # Number of entries that have been flushed from TLB
system.cpu.itb.alignFaults                          0                       # Number of TLB faults due to alignment restrictions
system.cpu.itb.prefetchFaults                       0                       # Number of TLB faults due to prefetch
system.cpu.itb.domainFaults                         0                       # Number of TLB faults due to domain restrictions
system.cpu.itb.permsFaults                          0                       # Number of TLB faults due to permissions restrictions
system.cpu.itb.readAccesses                         0                       # DTB read accesses
system.cpu.itb.writeAccesses                        0                       # DTB write accesses
system.cpu.itb.instAccesses                         0                       # ITB inst accesses
system.cpu.itb.hits                                 0                       # Total TLB (inst and data) hits
system.cpu.itb.misses                               0                       # Total TLB (inst and data) misses
system.cpu.itb.accesses                             0                       # Total TLB (inst and data) accesses
system.cpu.itb.stage2_mmu.stage2_tlb.instHits            0                       # ITB inst hits
system.cpu.itb.stage2_mmu.stage2_tlb.instMisses            0                       # ITB inst misses
system.cpu.itb.stage2_mmu.stage2_tlb.readHits            0                       # DTB read hits
system.cpu.itb.stage2_mmu.stage2_tlb.readMisses            0                       # DTB read misses
system.cpu.itb.stage2_mmu.stage2_tlb.writeHits            0                       # DTB write hits
system.cpu.itb.stage2_mmu.stage2_tlb.writeMisses            0                       # DTB write misses
system.cpu.itb.stage2_mmu.stage2_tlb.inserts            0                       # Number of times an entry is inserted into the TLB
system.cpu.itb.stage2_mmu.stage2_tlb.flushTlb            0                       # Number of times complete TLB was flushed
system.cpu.itb.stage2_mmu.stage2_tlb.flushTlbMva            0                       # Number of times TLB was flushed by MVA
system.cpu.itb.stage2_mmu.stage2_tlb.flushTlbMvaAsid            0                       # Number of times TLB was flushed by MVA & ASID
system.cpu.itb.stage2_mmu.stage2_tlb.flushTlbAsid            0                       # Number of times TLB was flushed by ASID
system.cpu.itb.stage2_mmu.stage2_tlb.flushedEntries            0                       # Number of entries that have been flushed from TLB
system.cpu.itb.stage2_mmu.stage2_tlb.alignFaults            0                       # Number of TLB faults due to alignment restrictions
system.cpu.itb.stage2_mmu.stage2_tlb.prefetchFaults            0                       # Number of TLB faults due to prefetch
system.cpu.itb.stage2_mmu.stage2_tlb.domainFaults            0                       # Number of TLB faults due to domain restrictions
system.cpu.itb.stage2_mmu.stage2_tlb.permsFaults            0                       # Number of TLB faults due to permissions restrictions
system.cpu.itb.stage2_mmu.stage2_tlb.readAccesses            0                       # DTB read accesses
system.cpu.itb.stage2_mmu.stage2_tlb.writeAccesses            0                       # DTB write accesses
system.cpu.itb.stage2_mmu.stage2_tlb.instAccesses            0                       # ITB inst accesses
system.cpu.itb.stage2_mmu.stage2_tlb.hits            0                       # Total TLB (inst and data) hits
system.cpu.itb.stage2_mmu.stage2_tlb.misses            0                       # Total TLB (inst and data) misses
system.cpu.itb.stage2_mmu.stage2_tlb.accesses            0                       # Total TLB (inst and data) accesses
system.cpu.itb.stage2_mmu.stage2_tlb.walker.walks            0                       # Table walker walks requested
system.cpu.itb.stage2_mmu.stage2_tlb.walker.requestOrigin_Requested::Data            0                       # Table walker requests started/completed, data/inst
system.cpu.itb.stage2_mmu.stage2_tlb.walker.requestOrigin_Requested::Inst            0                       # Table walker requests started/completed, data/inst
system.cpu.itb.stage2_mmu.stage2_tlb.walker.requestOrigin_Requested::total            0                       # Table walker requests started/completed, data/inst
system.cpu.itb.stage2_mmu.stage2_tlb.walker.requestOrigin_Completed::Data            0                       # Table walker requests started/completed, data/inst
system.cpu.itb.stage2_mmu.stage2_tlb.walker.requestOrigin_Completed::Inst            0                       # Table walker requests started/completed, data/inst
system.cpu.itb.stage2_mmu.stage2_tlb.walker.requestOrigin_Completed::total            0                       # Table walker requests started/completed, data/inst
system.cpu.itb.stage2_mmu.stage2_tlb.walker.requestOrigin::total            0                       # Table walker requests started/completed, data/inst
system.cpu.itb.stage2_mmu.stage2_tlb.walker.power_state.pwrStateResidencyTicks::UNDEFINED 158932664000                       # Cumulative time (in ticks) in various power states
system.cpu.itb.walker.walks                         0                       # Table walker walks requested
system.cpu.itb.walker.requestOrigin_Requested::Data            0                       # Table walker requests started/completed, data/inst
system.cpu.itb.walker.requestOrigin_Requested::Inst            0                       # Table walker requests started/completed, data/inst
system.cpu.itb.walker.requestOrigin_Requested::total            0                       # Table walker requests started/completed, data/inst
system.cpu.itb.walker.requestOrigin_Completed::Data            0                       # Table walker requests started/completed, data/inst
system.cpu.itb.walker.requestOrigin_Completed::Inst            0                       # Table walker requests started/completed, data/inst
system.cpu.itb.walker.requestOrigin_Completed::total            0                       # Table walker requests started/completed, data/inst
system.cpu.itb.walker.requestOrigin::total            0                       # Table walker requests started/completed, data/inst
system.cpu.itb.walker.power_state.pwrStateResidencyTicks::UNDEFINED 158932664000                       # Cumulative time (in ticks) in various power states
system.cpu.power_state.pwrStateResidencyTicks::ON 158932664000                       # Cumulative time (in ticks) in various power states
system.cpu.thread_0.numInsts                100000000                       # Number of Instructions committed
system.cpu.thread_0.numOps                  109431833                       # Number of Ops committed
system.cpu.thread_0.numMemRefs                      0                       # Number of Memory References
system.cpu_clk_domain.clock                      1000                       # Clock period in ticks
system.cpu_voltage_domain.voltage                   1                       # Voltage in Volts
system.l2.demand_hits::.cpu.inst              2072779                       # number of demand (read+write) hits
system.l2.demand_hits::.cpu.data                25553                       # number of demand (read+write) hits
system.l2.demand_hits::total                  2098332                       # number of demand (read+write) hits
system.l2.overall_hits::.cpu.inst             2072779                       # number of overall hits
system.l2.overall_hits::.cpu.data               25553                       # number of overall hits
system.l2.overall_hits::total                 2098332                       # number of overall hits
system.l2.demand_misses::.cpu.inst                604                       # number of demand (read+write) misses
system.l2.demand_misses::.cpu.data              46174                       # number of demand (read+write) misses
system.l2.demand_misses::total                  46778                       # number of demand (read+write) misses
system.l2.overall_misses::.cpu.inst               604                       # number of overall misses
system.l2.overall_misses::.cpu.data             46174                       # number of overall misses
system.l2.overall_misses::total                 46778                       # number of overall misses
system.l2.demand_miss_latency::.cpu.inst     60273000                       # number of demand (read+write) miss cycles
system.l2.demand_miss_latency::.cpu.data   4848036000                       # number of demand (read+write) miss cycles
system.l2.demand_miss_latency::total       4908309000                       # number of demand (read+write) miss cycles
system.l2.overall_miss_latency::.cpu.inst     60273000                       # number of overall miss cycles
system.l2.overall_miss_latency::.cpu.data   4848036000                       # number of overall miss cycles
system.l2.overall_miss_latency::total      4908309000                       # number of overall miss cycles
system.l2.demand_accesses::.cpu.inst          2073383                       # number of demand (read+write) accesses
system.l2.demand_accesses::.cpu.data            71727                       # number of demand (read+write) accesses
system.l2.demand_accesses::total              2145110                       # number of demand (read+write) accesses
system.l2.overall_accesses::.cpu.inst         2073383                       # number of overall (read+write) accesses
system.l2.overall_accesses::.cpu.data           71727                       # number of overall (read+write) accesses
system.l2.overall_accesses::total             2145110                       # number of overall (read+write) accesses
system.l2.demand_miss_rate::.cpu.inst        0.000291                       # miss rate for demand accesses
system.l2.demand_miss_rate::.cpu.data        0.643746                       # miss rate for demand accesses
system.l2.demand_miss_rate::total            0.021807                       # miss rate for demand accesses
system.l2.overall_miss_rate::.cpu.inst       0.000291                       # miss rate for overall accesses
system.l2.overall_miss_rate::.cpu.data       0.643746                       # miss rate for overall accesses
system.l2.overall_miss_rate::total           0.021807                       # miss rate for overall accesses
system.l2.demand_avg_miss_latency::.cpu.inst 99789.735099                       # average overall miss latency
system.l2.demand_avg_miss_latency::.cpu.data 104994.932213                       # average overall miss latency
system.l2.demand_avg_miss_latency::total 104927.722434                       # average overall miss latency
system.l2.overall_avg_miss_latency::.cpu.inst 99789.735099                       # average overall miss latency
system.l2.overall_avg_miss_latency::.cpu.data 104994.932213                       # average overall miss latency
system.l2.overall_avg_miss_latency::total 104927.722434                       # average overall miss latency
system.l2.blocked_cycles::no_mshrs                  0                       # number of cycles access was blocked
system.l2.blocked_cycles::no_targets                0                       # number of cycles access was blocked
system.l2.blocked::no_mshrs                         0                       # number of cycles access was blocked
system.l2.blocked::no_targets                       0                       # number of cycles access was blocked
system.l2.avg_blocked_cycles::no_mshrs            nan                       # average number of cycles each access was blocked
system.l2.avg_blocked_cycles::no_targets          nan                       # average number of cycles each access was blocked
system.l2.writebacks::.writebacks               37766                       # number of writebacks
system.l2.writebacks::total                     37766                       # number of writebacks
system.l2.demand_mshr_hits::.cpu.data               5                       # number of demand (read+write) MSHR hits
system.l2.demand_mshr_hits::total                   5                       # number of demand (read+write) MSHR hits
system.l2.overall_mshr_hits::.cpu.data              5                       # number of overall MSHR hits
system.l2.overall_mshr_hits::total                  5                       # number of overall MSHR hits
system.l2.demand_mshr_misses::.cpu.inst           604                       # number of demand (read+write) MSHR misses
system.l2.demand_mshr_misses::.cpu.data         46169                       # number of demand (read+write) MSHR misses
system.l2.demand_mshr_misses::total             46773                       # number of demand (read+write) MSHR misses
system.l2.overall_mshr_misses::.cpu.inst          604                       # number of overall MSHR misses
system.l2.overall_mshr_misses::.cpu.data        46169                       # number of overall MSHR misses
system.l2.overall_mshr_misses::total            46773                       # number of overall MSHR misses
system.l2.demand_mshr_miss_latency::.cpu.inst     48193000                       # number of demand (read+write) MSHR miss cycles
system.l2.demand_mshr_miss_latency::.cpu.data   3924248000                       # number of demand (read+write) MSHR miss cycles
system.l2.demand_mshr_miss_latency::total   3972441000                       # number of demand (read+write) MSHR miss cycles
system.l2.overall_mshr_miss_latency::.cpu.inst     48193000                       # number of overall MSHR miss cycles
system.l2.overall_mshr_miss_latency::.cpu.data   3924248000                       # number of overall MSHR miss cycles
system.l2.overall_mshr_miss_latency::total   3972441000                       # number of overall MSHR miss cycles
system.l2.demand_mshr_miss_rate::.cpu.inst     0.000291                       # mshr miss rate for demand accesses
system.l2.demand_mshr_miss_rate::.cpu.data     0.643677                       # mshr miss rate for demand accesses
system.l2.demand_mshr_miss_rate::total       0.021804                       # mshr miss rate for demand accesses
system.l2.overall_mshr_miss_rate::.cpu.inst     0.000291                       # mshr miss rate for overall accesses
system.l2.overall_mshr_miss_rate::.cpu.data     0.643677                       # mshr miss rate for overall accesses
system.l2.overall_mshr_miss_rate::total      0.021804                       # mshr miss rate for overall accesses
system.l2.demand_avg_mshr_miss_latency::.cpu.inst 79789.735099                       # average overall mshr miss latency
system.l2.demand_avg_mshr_miss_latency::.cpu.data 84997.465832                       # average overall mshr miss latency
system.l2.demand_avg_mshr_miss_latency::total 84930.216150                       # average overall mshr miss latency
system.l2.overall_avg_mshr_miss_latency::.cpu.inst 79789.735099                       # average overall mshr miss latency
system.l2.overall_avg_mshr_miss_latency::.cpu.data 84997.465832                       # average overall mshr miss latency
system.l2.overall_avg_mshr_miss_latency::total 84930.216150                       # average overall mshr miss latency
system.l2.replacements                          39193                       # number of replacements
system.l2.WritebackDirty_hits::.writebacks        60114                       # number of WritebackDirty hits
system.l2.WritebackDirty_hits::total            60114                       # number of WritebackDirty hits
system.l2.WritebackDirty_accesses::.writebacks        60114                       # number of WritebackDirty accesses(hits+misses)
system.l2.WritebackDirty_accesses::total        60114                       # number of WritebackDirty accesses(hits+misses)
system.l2.WritebackClean_hits::.writebacks      1945327                       # number of WritebackClean hits
system.l2.WritebackClean_hits::total          1945327                       # number of WritebackClean hits
system.l2.WritebackClean_accesses::.writebacks      1945327                       # number of WritebackClean accesses(hits+misses)
system.l2.WritebackClean_accesses::total      1945327                       # number of WritebackClean accesses(hits+misses)
system.l2.CleanEvict_mshr_misses::.writebacks          141                       # number of CleanEvict MSHR misses
system.l2.CleanEvict_mshr_misses::total           141                       # number of CleanEvict MSHR misses
system.l2.CleanEvict_mshr_miss_rate::.writebacks          inf                       # mshr miss rate for CleanEvict accesses
system.l2.CleanEvict_mshr_miss_rate::total          inf                       # mshr miss rate for CleanEvict accesses
system.l2.ReadExReq_hits::.cpu.data              4347                       # number of ReadExReq hits
system.l2.ReadExReq_hits::total                  4347                       # number of ReadExReq hits
system.l2.ReadExReq_misses::.cpu.data           38812                       # number of ReadExReq misses
system.l2.ReadExReq_misses::total               38812                       # number of ReadExReq misses
system.l2.ReadExReq_miss_latency::.cpu.data   4040833000                       # number of ReadExReq miss cycles
system.l2.ReadExReq_miss_latency::total    4040833000                       # number of ReadExReq miss cycles
system.l2.ReadExReq_accesses::.cpu.data         43159                       # number of ReadExReq accesses(hits+misses)
system.l2.ReadExReq_accesses::total             43159                       # number of ReadExReq accesses(hits+misses)
system.l2.ReadExReq_miss_rate::.cpu.data     0.899279                       # miss rate for ReadExReq accesses
system.l2.ReadExReq_miss_rate::total         0.899279                       # miss rate for ReadExReq accesses
system.l2.ReadExReq_avg_miss_latency::.cpu.data 104112.980521                       # average ReadExReq miss latency
system.l2.ReadExReq_avg_miss_latency::total 104112.980521                       # average ReadExReq miss latency
system.l2.ReadExReq_mshr_misses::.cpu.data        38812                       # number of ReadExReq MSHR misses
system.l2.ReadExReq_mshr_misses::total          38812                       # number of ReadExReq MSHR misses
system.l2.ReadExReq_mshr_miss_latency::.cpu.data   3264593000                       # number of ReadExReq MSHR miss cycles
system.l2.ReadExReq_mshr_miss_latency::total   3264593000                       # number of ReadExReq MSHR miss cycles
system.l2.ReadExReq_mshr_miss_rate::.cpu.data     0.899279                       # mshr miss rate for ReadExReq accesses
system.l2.ReadExReq_mshr_miss_rate::total     0.899279                       # mshr miss rate for ReadExReq accesses
system.l2.ReadExReq_avg_mshr_miss_latency::.cpu.data 84112.980521                       # average ReadExReq mshr miss latency
system.l2.ReadExReq_avg_mshr_miss_latency::total 84112.980521                       # average ReadExReq mshr miss latency
system.l2.ReadCleanReq_hits::.cpu.inst        2072779                       # number of ReadCleanReq hits
system.l2.ReadCleanReq_hits::total            2072779                       # number of ReadCleanReq hits
system.l2.ReadCleanReq_misses::.cpu.inst          604                       # number of ReadCleanReq misses
system.l2.ReadCleanReq_misses::total              604                       # number of ReadCleanReq misses
system.l2.ReadCleanReq_miss_latency::.cpu.inst     60273000                       # number of ReadCleanReq miss cycles
system.l2.ReadCleanReq_miss_latency::total     60273000                       # number of ReadCleanReq miss cycles
system.l2.ReadCleanReq_accesses::.cpu.inst      2073383                       # number of ReadCleanReq accesses(hits+misses)
system.l2.ReadCleanReq_accesses::total        2073383                       # number of ReadCleanReq accesses(hits+misses)
system.l2.ReadCleanReq_miss_rate::.cpu.inst     0.000291                       # miss rate for ReadCleanReq accesses
system.l2.ReadCleanReq_miss_rate::total      0.000291                       # miss rate for ReadCleanReq accesses
system.l2.ReadCleanReq_avg_miss_latency::.cpu.inst 99789.735099                       # average ReadCleanReq miss latency
system.l2.ReadCleanReq_avg_miss_latency::total 99789.735099                       # average ReadCleanReq miss latency
system.l2.ReadCleanReq_mshr_misses::.cpu.inst          604                       # number of ReadCleanReq MSHR misses
system.l2.ReadCleanReq_mshr_misses::total          604                       # number of ReadCleanReq MSHR misses
system.l2.ReadCleanReq_mshr_miss_latency::.cpu.inst     48193000                       # number of ReadCleanReq MSHR miss cycles
system.l2.ReadCleanReq_mshr_miss_latency::total     48193000                       # number of ReadCleanReq MSHR miss cycles
system.l2.ReadCleanReq_mshr_miss_rate::.cpu.inst     0.000291                       # mshr miss rate for ReadCleanReq accesses
system.l2.ReadCleanReq_mshr_miss_rate::total     0.000291                       # mshr miss rate for ReadCleanReq accesses
system.l2.ReadCleanReq_avg_mshr_miss_latency::.cpu.inst 79789.735099                       # average ReadCleanReq mshr miss latency
system.l2.ReadCleanReq_avg_mshr_miss_latency::total 79789.735099                       # average ReadCleanReq mshr miss latency
system.l2.ReadSharedReq_hits::.cpu.data         21206                       # number of ReadSharedReq hits
system.l2.ReadSharedReq_hits::total             21206                       # number of ReadSharedReq hits
system.l2.ReadSharedReq_misses::.cpu.data         7362                       # number of ReadSharedReq misses
system.l2.ReadSharedReq_misses::total            7362                       # number of ReadSharedReq misses
system.l2.ReadSharedReq_miss_latency::.cpu.data    807203000                       # number of ReadSharedReq miss cycles
system.l2.ReadSharedReq_miss_latency::total    807203000                       # number of ReadSharedReq miss cycles
system.l2.ReadSharedReq_accesses::.cpu.data        28568                       # number of ReadSharedReq accesses(hits+misses)
system.l2.ReadSharedReq_accesses::total         28568                       # number of ReadSharedReq accesses(hits+misses)
system.l2.ReadSharedReq_miss_rate::.cpu.data     0.257701                       # miss rate for ReadSharedReq accesses
system.l2.ReadSharedReq_miss_rate::total     0.257701                       # miss rate for ReadSharedReq accesses
system.l2.ReadSharedReq_avg_miss_latency::.cpu.data 109644.525944                       # average ReadSharedReq miss latency
system.l2.ReadSharedReq_avg_miss_latency::total 109644.525944                       # average ReadSharedReq miss latency
system.l2.ReadSharedReq_mshr_hits::.cpu.data            5                       # number of ReadSharedReq MSHR hits
system.l2.ReadSharedReq_mshr_hits::total            5                       # number of ReadSharedReq MSHR hits
system.l2.ReadSharedReq_mshr_misses::.cpu.data         7357                       # number of ReadSharedReq MSHR misses
system.l2.ReadSharedReq_mshr_misses::total         7357                       # number of ReadSharedReq MSHR misses
system.l2.ReadSharedReq_mshr_miss_latency::.cpu.data    659655000                       # number of ReadSharedReq MSHR miss cycles
system.l2.ReadSharedReq_mshr_miss_latency::total    659655000                       # number of ReadSharedReq MSHR miss cycles
system.l2.ReadSharedReq_mshr_miss_rate::.cpu.data     0.257526                       # mshr miss rate for ReadSharedReq accesses
system.l2.ReadSharedReq_mshr_miss_rate::total     0.257526                       # mshr miss rate for ReadSharedReq accesses
system.l2.ReadSharedReq_avg_mshr_miss_latency::.cpu.data 89663.585701                       # average ReadSharedReq mshr miss latency
system.l2.ReadSharedReq_avg_mshr_miss_latency::total 89663.585701                       # average ReadSharedReq mshr miss latency
system.l2.power_state.pwrStateResidencyTicks::UNDEFINED 158932664000                       # Cumulative time (in ticks) in various power states
system.l2.tags.tagsinuse                  8008.953345                       # Cycle average of tags in use
system.l2.tags.total_refs                     4159344                       # Total number of references to valid blocks.
system.l2.tags.sampled_refs                     47385                       # Sample count of references to valid blocks.
system.l2.tags.avg_refs                     87.777651                       # Average number of references to valid blocks.
system.l2.tags.warmup_cycle                     87000                       # Cycle when the warmup percentage was hit.
system.l2.tags.occ_blocks::.writebacks      72.036164                       # Average occupied blocks per requestor
system.l2.tags.occ_blocks::.cpu.inst        79.621587                       # Average occupied blocks per requestor
system.l2.tags.occ_blocks::.cpu.data      7857.295594                       # Average occupied blocks per requestor
system.l2.tags.occ_percent::.writebacks      0.008793                       # Average percentage of cache occupancy
system.l2.tags.occ_percent::.cpu.inst        0.009719                       # Average percentage of cache occupancy
system.l2.tags.occ_percent::.cpu.data        0.959143                       # Average percentage of cache occupancy
system.l2.tags.occ_percent::total            0.977655                       # Average percentage of cache occupancy
system.l2.tags.occ_task_id_blocks::1024          8192                       # Occupied blocks per task id
system.l2.tags.age_task_id_blocks_1024::0            2                       # Occupied blocks per task id
system.l2.tags.age_task_id_blocks_1024::1           13                       # Occupied blocks per task id
system.l2.tags.age_task_id_blocks_1024::2          154                       # Occupied blocks per task id
system.l2.tags.age_task_id_blocks_1024::3         1922                       # Occupied blocks per task id
system.l2.tags.age_task_id_blocks_1024::4         6101                       # Occupied blocks per task id
system.l2.tags.occ_task_id_percent::1024            1                       # Percentage of cache occupancy per task id
system.l2.tags.tag_accesses                   8366365                       # Number of tag accesses
system.l2.tags.data_accesses                  8366365                       # Number of data accesses
system.l2.tags.power_state.pwrStateResidencyTicks::UNDEFINED 158932664000                       # Cumulative time (in ticks) in various power states
system.mem_ctrls.avgPriority_.writebacks::samples     37766.00                       # Average QoS priority value for accepted requests
system.mem_ctrls.avgPriority_.cpu.inst::samples       604.00                       # Average QoS priority value for accepted requests
system.mem_ctrls.avgPriority_.cpu.data::samples     46151.00                       # Average QoS priority value for accepted requests
system.mem_ctrls.priorityMinLatency      0.000000018750                       # per QoS priority minimum request to response latency (s)
system.mem_ctrls.priorityMaxLatency      0.002291056750                       # per QoS priority maximum request to response latency (s)
system.mem_ctrls.numReadWriteTurnArounds         2114                       # Number of turnarounds from READ to WRITE
system.mem_ctrls.numWriteReadTurnArounds         2114                       # Number of turnarounds from WRITE to READ
system.mem_ctrls.numStayReadState              171493                       # Number of times bus staying in READ state
system.mem_ctrls.numStayWriteState              35700                       # Number of times bus staying in WRITE state
system.mem_ctrls.readReqs                       46773                       # Number of read requests accepted
system.mem_ctrls.writeReqs                      37766                       # Number of write requests accepted
system.mem_ctrls.readBursts                     46773                       # Number of controller read bursts, including those serviced by the write queue
system.mem_ctrls.writeBursts                    37766                       # Number of controller write bursts, including those merged in the write queue
system.mem_ctrls.servicedByWrQ                     18                       # Number of controller read bursts serviced by the write queue
system.mem_ctrls.mergedWrBursts                     0                       # Number of controller write bursts merged with an existing one
system.mem_ctrls.neitherReadNorWriteReqs            0                       # Number of requests that are neither read nor write
system.mem_ctrls.avgRdQLen                       1.05                       # Average read queue length when enqueuing
system.mem_ctrls.avgWrQLen                      23.69                       # Average write queue length when enqueuing
system.mem_ctrls.numRdRetry                         0                       # Number of times read queue was full causing retry
system.mem_ctrls.numWrRetry                         0                       # Number of times write queue was full causing retry
system.mem_ctrls.readPktSize::0                     0                       # Read request sizes (log2)
[...]
system.mem_ctrls.dram.bw_write::.writebacks     15207849                       # Write bandwidth from this memory (bytes/s)
system.mem_ctrls.dram.bw_write::total        15207849                       # Write bandwidth from this memory (bytes/s)
system.mem_ctrls.dram.bw_total::.writebacks     15207849                       # Total bandwidth to/from this memory (bytes/s)
system.mem_ctrls.dram.bw_total::.cpu.inst       243223                       # Total bandwidth to/from this memory (bytes/s)
system.mem_ctrls.dram.bw_total::.cpu.data     18591622                       # Total bandwidth to/from this memory (bytes/s)
system.mem_ctrls.dram.bw_total::total        34042694                       # Total bandwidth to/from this memory (bytes/s)
system.mem_ctrls.dram.readBursts                46755                       # Number of DRAM read bursts
system.mem_ctrls.dram.writeBursts               37745                       # Number of DRAM write bursts
system.mem_ctrls.dram.perBankRdBursts::0         2884                       # Per bank write bursts
system.mem_ctrls.dram.perBankRdBursts::1         2879                       # Per bank write bursts
system.mem_ctrls.dram.perBankRdBursts::2         2849                       # Per bank write bursts
system.mem_ctrls.dram.perBankRdBursts::3         2990                       # Per bank write bursts
system.mem_ctrls.dram.perBankRdBursts::4         3112                       # Per bank write bursts
system.mem_ctrls.dram.perBankRdBursts::5         2800                       # Per bank write bursts
system.mem_ctrls.dram.perBankRdBursts::6         2883                       # Per bank write bursts
system.mem_ctrls.dram.perBankRdBursts::7         3015                       # Per bank write bursts
system.mem_ctrls.dram.perBankRdBursts::8         2866                       # Per bank write bursts
system.mem_ctrls.dram.perBankRdBursts::9         2967                       # Per bank write bursts
system.mem_ctrls.dram.perBankRdBursts::10         2951                       # Per bank write bursts
system.mem_ctrls.dram.perBankRdBursts::11         2873                       # Per bank write bursts
system.mem_ctrls.dram.perBankRdBursts::12         2965                       # Per bank write bursts
system.mem_ctrls.dram.perBankRdBursts::13         2842                       # Per bank write bursts
system.mem_ctrls.dram.perBankRdBursts::14         2983                       # Per bank write bursts
system.mem_ctrls.dram.perBankRdBursts::15         2896                       # Per bank write bursts
system.mem_ctrls.dram.perBankWrBursts::0         2315                       # Per bank write bursts
system.mem_ctrls.dram.perBankWrBursts::1         2338                       # Per bank write bursts
system.mem_ctrls.dram.perBankWrBursts::2         2320                       # Per bank write bursts
system.mem_ctrls.dram.perBankWrBursts::3         2363                       # Per bank write bursts
system.mem_ctrls.dram.perBankWrBursts::4         2389                       # Per bank write bursts
system.mem_ctrls.dram.perBankWrBursts::5         2289                       # Per bank write bursts
system.mem_ctrls.dram.perBankWrBursts::6         2373                       # Per bank write bursts
system.mem_ctrls.dram.perBankWrBursts::7         2471                       # Per bank write bursts
system.mem_ctrls.dram.perBankWrBursts::8         2328                       # Per bank write bursts
system.mem_ctrls.dram.perBankWrBursts::9         2394                       # Per bank write bursts
system.mem_ctrls.dram.perBankWrBursts::10         2404                       # Per bank write bursts
system.mem_ctrls.dram.perBankWrBursts::11         2300                       # Per bank write bursts
system.mem_ctrls.dram.perBankWrBursts::12         2401                       # Per bank write bursts
system.mem_ctrls.dram.perBankWrBursts::13         2312                       # Per bank write bursts
system.mem_ctrls.dram.perBankWrBursts::14         2394                       # Per bank write bursts
system.mem_ctrls.dram.perBankWrBursts::15         2354                       # Per bank write bursts
system.mem_ctrls.dram.totQLat               690826250                       # Total ticks spent queuing
system.mem_ctrls.dram.totBusLat             233775000                       # Total ticks spent in databus transfers
system.mem_ctrls.dram.totMemAccLat         1567482500                       # Total ticks spent from burst creation until serviced by the DRAM
system.mem_ctrls.dram.avgQLat                14775.45                       # Average queueing delay per DRAM burst
system.mem_ctrls.dram.avgBusLat               5000.00                       # Average bus latency per DRAM burst
system.mem_ctrls.dram.avgMemAccLat           33525.45                       # Average memory access latency per DRAM burst
system.mem_ctrls.dram.readRowHits               15164                       # Number of row buffer hits during reads
system.mem_ctrls.dram.writeRowHits              27279                       # Number of row buffer hits during writes
system.mem_ctrls.dram.readRowHitRate            32.43                       # Row buffer hit rate for reads
system.mem_ctrls.dram.writeRowHitRate           72.27                       # Row buffer hit rate for writes
system.mem_ctrls.dram.bytesPerActivate::samples        42056                       # Bytes accessed per row activation
system.mem_ctrls.dram.bytesPerActivate::mean   128.587407                       # Bytes accessed per row activation
system.mem_ctrls.dram.bytesPerActivate::gmean    91.145070                       # Bytes accessed per row activation
system.mem_ctrls.dram.bytesPerActivate::stdev   166.793059                       # Bytes accessed per row activation
system.mem_ctrls.dram.bytesPerActivate::0-127        30777     73.18%     73.18% # Bytes accessed per row activation
system.mem_ctrls.dram.bytesPerActivate::128-255         6100     14.50%     87.69% # Bytes accessed per row activation
system.mem_ctrls.dram.bytesPerActivate::256-383         2421      5.76%     93.44% # Bytes accessed per row activation
system.mem_ctrls.dram.bytesPerActivate::384-511          899      2.14%     95.58% # Bytes accessed per row activation
system.mem_ctrls.dram.bytesPerActivate::512-639          433      1.03%     96.61% # Bytes accessed per row activation
system.mem_ctrls.dram.bytesPerActivate::640-767          350      0.83%     97.44% # Bytes accessed per row activation
system.mem_ctrls.dram.bytesPerActivate::768-895          268      0.64%     98.08% # Bytes accessed per row activation
system.mem_ctrls.dram.bytesPerActivate::896-1023          270      0.64%     98.72% # Bytes accessed per row activation
system.mem_ctrls.dram.bytesPerActivate::1024-1151          538      1.28%    100.00% # Bytes accessed per row activation
system.mem_ctrls.dram.bytesPerActivate::total        42056                       # Bytes accessed per row activation
system.mem_ctrls.dram.bytesRead               2992320                       # Total number of bytes read from DRAM
system.mem_ctrls.dram.bytesWritten            2415680                       # Total number of bytes written to DRAM
system.mem_ctrls.dram.avgRdBW               18.827596                       # Average DRAM read bandwidth in MiBytes/s
system.mem_ctrls.dram.avgWrBW               15.199393                       # Average DRAM write bandwidth in MiBytes/s
system.mem_ctrls.dram.peakBW                 12800.00                       # Theoretical peak bandwidth in MiByte/s
system.mem_ctrls.dram.busUtil                    0.27                       # Data bus utilization in percentage
system.mem_ctrls.dram.busUtilRead                0.15                       # Data bus utilization in percentage for reads
system.mem_ctrls.dram.busUtilWrite               0.12                       # Data bus utilization in percentage for writes
system.mem_ctrls.dram.pageHitRate               50.23                       # Row buffer hit rate, read and write combined
system.mem_ctrls.dram.power_state.pwrStateResidencyTicks::UNDEFINED 158932664000                       # Cumulative time (in ticks) in various power states
system.mem_ctrls.dram.rank0.actEnergy       152003460                       # Energy for activate commands per rank (pJ)
system.mem_ctrls.dram.rank0.preEnergy        80787960                       # Energy for precharge commands per rank (pJ)
system.mem_ctrls.dram.rank0.readEnergy      167161680                       # Energy for read commands per rank (pJ)
system.mem_ctrls.dram.rank0.writeEnergy      98438760                       # Energy for write commands per rank (pJ)
system.mem_ctrls.dram.rank0.refreshEnergy 12545417040.000002                       # Energy for refresh commands per rank (pJ)
system.mem_ctrls.dram.rank0.actBackEnergy  27741636660                       # Energy for active background per rank (pJ)
system.mem_ctrls.dram.rank0.preBackEnergy  37668765120                       # Energy for precharge background per rank (pJ)
system.mem_ctrls.dram.rank0.actPowerDownEnergy            0                       # Energy for active power-down per rank (pJ)
system.mem_ctrls.dram.rank0.prePowerDownEnergy            0                       # Energy for precharge power-down per rank (pJ)
system.mem_ctrls.dram.rank0.selfRefreshEnergy            0                       # Energy for self refresh per rank (pJ)
system.mem_ctrls.dram.rank0.totalEnergy   78454210680                       # Total energy per rank (pJ)
system.mem_ctrls.dram.rank0.averagePower   493.631760                       # Core power per rank (mW)
system.mem_ctrls.dram.rank0.totalIdleTime            0                       # Total Idle time Per DRAM Rank
system.mem_ctrls.dram.rank0.pwrStateTime::IDLE  97630035500                       # Time in different power states
system.mem_ctrls.dram.rank0.pwrStateTime::REF   5306860000                       # Time in different power states
system.mem_ctrls.dram.rank0.pwrStateTime::SREF            0                       # Time in different power states
system.mem_ctrls.dram.rank0.pwrStateTime::PRE_PDN            0                       # Time in different power states
system.mem_ctrls.dram.rank0.pwrStateTime::ACT  55995768500                       # Time in different power states
system.mem_ctrls.dram.rank0.pwrStateTime::ACT_PDN            0                       # Time in different power states
system.mem_ctrls.dram.rank1.actEnergy       148283520                       # Energy for activate commands per rank (pJ)
system.mem_ctrls.dram.rank1.preEnergy        78814560                       # Energy for precharge commands per rank (pJ)
system.mem_ctrls.dram.rank1.readEnergy      166669020                       # Energy for read commands per rank (pJ)
system.mem_ctrls.dram.rank1.writeEnergy      98590140                       # Energy for write commands per rank (pJ)
system.mem_ctrls.dram.rank1.refreshEnergy 12545417040.000002                       # Energy for refresh commands per rank (pJ)
system.mem_ctrls.dram.rank1.actBackEnergy  27673887030                       # Energy for active background per rank (pJ)
system.mem_ctrls.dram.rank1.preBackEnergy  37725817440                       # Energy for precharge background per rank (pJ)
system.mem_ctrls.dram.rank1.actPowerDownEnergy            0                       # Energy for active power-down per rank (pJ)
system.mem_ctrls.dram.rank1.prePowerDownEnergy            0                       # Energy for precharge power-down per rank (pJ)
system.mem_ctrls.dram.rank1.selfRefreshEnergy            0                       # Energy for self refresh per rank (pJ)
system.mem_ctrls.dram.rank1.totalEnergy   78437478750                       # Total energy per rank (pJ)
system.mem_ctrls.dram.rank1.averagePower   493.526483                       # Core power per rank (mW)
system.mem_ctrls.dram.rank1.totalIdleTime            0                       # Total Idle time Per DRAM Rank
system.mem_ctrls.dram.rank1.pwrStateTime::IDLE  97777416000                       # Time in different power states
system.mem_ctrls.dram.rank1.pwrStateTime::REF   5306860000                       # Time in different power states
system.mem_ctrls.dram.rank1.pwrStateTime::SREF            0                       # Time in different power states
system.mem_ctrls.dram.rank1.pwrStateTime::PRE_PDN            0                       # Time in different power states
system.mem_ctrls.dram.rank1.pwrStateTime::ACT  55848388000                       # Time in different power states
system.mem_ctrls.dram.rank1.pwrStateTime::ACT_PDN            0                       # Time in different power states
system.mem_ctrls.power_state.pwrStateResidencyTicks::UNDEFINED 158932664000                       # Cumulative time (in ticks) in various power states
system.membus.trans_dist::ReadResp               7961                       # Transaction distribution
system.membus.trans_dist::WritebackDirty        37766                       # Transaction distribution
system.membus.trans_dist::CleanEvict              607                       # Transaction distribution
system.membus.trans_dist::ReadExReq             38812                       # Transaction distribution
system.membus.trans_dist::ReadExResp            38812                       # Transaction distribution
system.membus.trans_dist::ReadSharedReq          7961                       # Transaction distribution
system.membus.pkt_count_system.l2.mem_side_port::system.mem_ctrls.port       131919                       # Packet count per connected requestor and responder (bytes)
system.membus.pkt_count::total                 131919                       # Packet count per connected requestor and responder (bytes)
system.membus.pkt_size_system.l2.mem_side_port::system.mem_ctrls.port      5410496                       # Cumulative packet size per connected requestor and responder (bytes)
system.membus.pkt_size::total                 5410496                       # Cumulative packet size per connected requestor and responder (bytes)
system.membus.snoops                                0                       # Total snoops (count)
system.membus.snoopTraffic                          0                       # Total snoop traffic (bytes)
system.membus.snoop_fanout::samples             46773                       # Request fanout histogram
system.membus.snoop_fanout::mean                    0                       # Request fanout histogram
system.membus.snoop_fanout::stdev                   0                       # Request fanout histogram
system.membus.snoop_fanout::underflows              0      0.00%      0.00% # Request fanout histogram
system.membus.snoop_fanout::0                   46773    100.00%    100.00% # Request fanout histogram
system.membus.snoop_fanout::1                       0      0.00%    100.00% # Request fanout histogram
system.membus.snoop_fanout::overflows               0      0.00%    100.00% # Request fanout histogram
system.membus.snoop_fanout::min_value               0                       # Request fanout histogram
system.membus.snoop_fanout::max_value               0                       # Request fanout histogram
system.membus.snoop_fanout::total               46773                       # Request fanout histogram
system.membus.power_state.pwrStateResidencyTicks::UNDEFINED 158932664000                       # Cumulative time (in ticks) in various power states
system.membus.reqLayer0.occupancy           236210000                       # Layer occupancy (ticks)
system.membus.reqLayer0.utilization               0.1                       # Layer utilization (%)
system.membus.respLayer1.occupancy          253529500                       # Layer occupancy (ticks)
system.membus.respLayer1.utilization              0.2                       # Layer utilization (%)
system.tol2bus.trans_dist::ReadResp           2101951                       # Transaction distribution
system.tol2bus.trans_dist::WritebackDirty        97880                       # Transaction distribution
system.tol2bus.trans_dist::WritebackClean      2073157                       # Transaction distribution
system.tol2bus.trans_dist::CleanEvict           12016                       # Transaction distribution
system.tol2bus.trans_dist::ReadExReq            43159                       # Transaction distribution
system.tol2bus.trans_dist::ReadExResp           43159                       # Transaction distribution
system.tol2bus.trans_dist::ReadCleanReq       2073383                       # Transaction distribution
system.tol2bus.trans_dist::ReadSharedReq        28568                       # Transaction distribution
system.tol2bus.pkt_count_system.cpu.icache.mem_side_port::system.l2.cpu_side_port      6219923                       # Packet count per connected requestor and responder (bytes)
system.tol2bus.pkt_count_system.cpu.dcache.mem_side_port::system.l2.cpu_side_port       214157                       # Packet count per connected requestor and responder (bytes)
system.tol2bus.pkt_count::total               6434080                       # Packet count per connected requestor and responder (bytes)
system.tol2bus.pkt_size_system.cpu.icache.mem_side_port::system.l2.cpu_side_port    265378560                       # Cumulative packet size per connected requestor and responder (bytes)
system.tol2bus.pkt_size_system.cpu.dcache.mem_side_port::system.l2.cpu_side_port      8437824                       # Cumulative packet size per connected requestor and responder (bytes)
system.tol2bus.pkt_size::total              273816384                       # Cumulative packet size per connected requestor and responder (bytes)
system.tol2bus.snoops                           39193                       # Total snoops (count)
system.tol2bus.snoopTraffic                   2417024                       # Total snoop traffic (bytes)
system.tol2bus.snoop_fanout::samples          2184303                       # Request fanout histogram
system.tol2bus.snoop_fanout::mean            0.059726                       # Request fanout histogram
system.tol2bus.snoop_fanout::stdev           0.237010                       # Request fanout histogram
system.tol2bus.snoop_fanout::underflows             0      0.00%      0.00% # Request fanout histogram
system.tol2bus.snoop_fanout::0                2053859     94.03%     94.03% # Request fanout histogram
system.tol2bus.snoop_fanout::1                 130428      5.97%    100.00% # Request fanout histogram
system.tol2bus.snoop_fanout::2                     16      0.00%    100.00% # Request fanout histogram
system.tol2bus.snoop_fanout::overflows              0      0.00%    100.00% # Request fanout histogram
system.tol2bus.snoop_fanout::min_value              0                       # Request fanout histogram
system.tol2bus.snoop_fanout::max_value              2                       # Request fanout histogram
system.tol2bus.snoop_fanout::total            2184303                       # Request fanout histogram
system.tol2bus.power_state.pwrStateResidencyTicks::UNDEFINED 158932664000                       # Cumulative time (in ticks) in various power states
system.tol2bus.reqLayer0.occupancy         8555512000                       # Layer occupancy (ticks)
system.tol2bus.reqLayer0.utilization              5.4                       # Layer utilization (%)
system.tol2bus.respLayer0.occupancy        6220149999                       # Layer occupancy (ticks)
system.tol2bus.respLayer0.utilization             3.9                       # Layer utilization (%)
system.tol2bus.respLayer1.occupancy         215193987                       # Layer occupancy (ticks)
system.tol2bus.respLayer1.utilization             0.1                       # Layer utilization (%)
system.voltage_domain.voltage                       1                       # Voltage in Volts

---------- End Simulation Statistics   ----------
