
---------- Begin Simulation Statistics ----------
final_tick                                  413587000                       # Number of ticks from beginning of simulation (restored from checkpoints and never reset)
host_inst_rate                                 329560                       # Simulator instruction rate (inst/s)
host_mem_usage                                 655944                       # Number of bytes of host memory used
host_op_rate                                   391858                       # Simulator op (including micro ops) rate (op/s)
host_seconds                                     1.28                       # Real time elapsed on the host
host_tick_rate                              322905072                       # Simulator tick rate (ticks/s)
sim_freq                                 1000000000000                       # Frequency of simulated ticks
sim_insts                                      422085                       # Number of instructions simulated
sim_ops                                        501899                       # Number of ops (including micro ops) simulated
sim_seconds                                  0.000414                       # Number of seconds simulated
sim_ticks                                   413587000                       # Number of ticks simulated
system.cpu.committedInsts                      422085                       # Number of instructions committed
system.cpu.committedOps                        501899                       # Number of ops (including micro ops) committed
system.cpu.cpi                               1.959733                       # CPI: cycles per instruction
system.cpu.discardedOps                         14064                       # Number of ops (including micro ops) which were discarded before commit
system.cpu.idleCycles                          248867                       # Total number of cycles that the object has spent stopped
system.cpu.ipc                               0.510274                       # IPC: instructions per cycle
system.cpu.numCycles                           827174                       # number of cpu cycles simulated
system.cpu.numFetchSuspends                         0                       # Number of times Execute suspended instruction fetching
system.cpu.numWorkItemsCompleted                    0                       # number of work items this cpu completed
system.cpu.numWorkItemsStarted                      0                       # number of work items this cpu started
system.cpu.op_class_0::No_OpClass                   0      0.00%      0.00% # Class of committed instruction
system.cpu.op_class_0::IntAlu                  343364     68.41%     68.41% # Class of committed instruction
system.cpu.op_class_0::IntMult                   3435      0.68%     69.10% # Class of committed instruction
system.cpu.op_class_0::IntDiv                       0      0.00%     69.10% # Class of committed instruction
system.cpu.op_class_0::FloatAdd                     0      0.00%     69.10% # Class of committed instruction
system.cpu.op_class_0::FloatCmp                     0      0.00%     69.10% # Class of committed instruction
system.cpu.op_class_0::FloatCvt                     0      0.00%     69.10% # Class of committed instruction
system.cpu.op_class_0::FloatMult                    0      0.00%     69.10% # Class of committed instruction
system.cpu.op_class_0::FloatMultAcc                 0      0.00%     69.10% # Class of committed instruction
system.cpu.op_class_0::FloatDiv                     0      0.00%     69.10% # Class of committed instruction
system.cpu.op_class_0::FloatMisc                    0      0.00%     69.10% # Class of committed instruction
system.cpu.op_class_0::FloatSqrt                    0      0.00%     69.10% # Class of committed instruction
system.cpu.op_class_0::SimdAdd                      0      0.00%     69.10% # Class of committed instruction
system.cpu.op_class_0::SimdAddAcc                   0      0.00%     69.10% # Class of committed instruction
system.cpu.op_class_0::SimdAlu                      0      0.00%     69.10% # Class of committed instruction
system.cpu.op_class_0::SimdCmp                      0      0.00%     69.10% # Class of committed instruction
system.cpu.op_class_0::SimdCvt                      0      0.00%     69.10% # Class of committed instruction
system.cpu.op_class_0::SimdMisc                     0      0.00%     69.10% # Class of committed instruction
system.cpu.op_class_0::SimdMult                     0      0.00%     69.10% # Class of committed instruction
system.cpu.op_class_0::SimdMultAcc                  0      0.00%     69.10% # Class of committed instruction
system.cpu.op_class_0::SimdShift                    0      0.00%     69.10% # Class of committed instruction
system.cpu.op_class_0::SimdShiftAcc                 0      0.00%     69.10% # Class of committed instruction
system.cpu.op_class_0::SimdDiv                      0      0.00%     69.10% # Class of committed instruction
system.cpu.op_class_0::SimdSqrt                     0      0.00%     69.10% # Class of committed instruction
system.cpu.op_class_0::SimdFloatAdd                 0      0.00%     69.10% # Class of committed instruction
system.cpu.op_class_0::SimdFloatAlu                 0      0.00%     69.10% # Class of committed instruction
system.cpu.op_class_0::SimdFloatCmp                 0      0.00%     69.10% # Class of committed instruction
system.cpu.op_class_0::SimdFloatCvt                 0      0.00%     69.10% # Class of committed instruction
system.cpu.op_class_0::SimdFloatDiv                 0      0.00%     69.10% # Class of committed instruction
system.cpu.op_class_0::SimdFloatMisc               21      0.00%     69.10% # Class of committed instruction
system.cpu.op_class_0::SimdFloatMult                0      0.00%     69.10% # Class of committed instruction
system.cpu.op_class_0::SimdFloatMultAcc             0      0.00%     69.10% # Class of committed instruction
system.cpu.op_class_0::SimdFloatSqrt                0      0.00%     69.10% # Class of committed instruction
system.cpu.op_class_0::SimdReduceAdd                0      0.00%     69.10% # Class of committed instruction
system.cpu.op_class_0::SimdReduceAlu                0      0.00%     69.10% # Class of committed instruction
system.cpu.op_class_0::SimdReduceCmp                0      0.00%     69.10% # Class of committed instruction
system.cpu.op_class_0::SimdFloatReduceAdd            0      0.00%     69.10% # Class of committed instruction
system.cpu.op_class_0::SimdFloatReduceCmp            0      0.00%     69.10% # Class of committed instruction
system.cpu.op_class_0::SimdAes                      0      0.00%     69.10% # Class of committed instruction
system.cpu.op_class_0::SimdAesMix                   0      0.00%     69.10% # Class of committed instruction
system.cpu.op_class_0::SimdSha1Hash                 0      0.00%     69.10% # Class of committed instruction
system.cpu.op_class_0::SimdSha1Hash2                0      0.00%     69.10% # Class of committed instruction
system.cpu.op_class_0::SimdSha256Hash               0      0.00%     69.10% # Class of committed instruction
system.cpu.op_class_0::SimdSha256Hash2              0      0.00%     69.10% # Class of committed instruction
system.cpu.op_class_0::SimdShaSigma2                0      0.00%     69.10% # Class of committed instruction
system.cpu.op_class_0::SimdShaSigma3                0      0.00%     69.10% # Class of committed instruction
system.cpu.op_class_0::SimdPredAlu                  0      0.00%     69.10% # Class of committed instruction
system.cpu.op_class_0::MemRead                  82981     16.53%     85.63% # Class of committed instruction
system.cpu.op_class_0::MemWrite                 72098     14.37%    100.00% # Class of committed instruction
system.cpu.op_class_0::FloatMemRead                 0      0.00%    100.00% # Class of committed instruction
system.cpu.op_class_0::FloatMemWrite                0      0.00%    100.00% # Class of committed instruction
system.cpu.op_class_0::IprAccess                    0      0.00%    100.00% # Class of committed instruction
system.cpu.op_class_0::InstPrefetch                 0      0.00%    100.00% # Class of committed instruction
system.cpu.op_class_0::total                   501899                       # Class of committed instruction
system.cpu.tickCycles                          578307                       # Number of cycles that the object actually ticked
system.cpu.workload.numSyscalls                   510                       # Number of system calls
system.membus.snoop_filter.hit_multi_requests            6                       # Number of requests hitting in the snoop filter with multiple (>1) holders of the requested data.
system.membus.snoop_filter.hit_multi_snoops            0                       # Number of snoops hitting in the snoop filter with multiple (>1) holders of the requested data.
system.membus.snoop_filter.hit_single_requests         4621                       # Number of requests hitting in the snoop filter with a single holder of the requested data.
system.membus.snoop_filter.hit_single_snoops            0                       # Number of snoops hitting in the snoop filter with a single holder of the requested data.
system.membus.snoop_filter.tot_requests          9702                       # Total number of requests made to the snoop filter.
system.membus.snoop_filter.tot_snoops               0                       # Total number of snoops made to the snoop filter.
system.clk_domain.clock                          1000                       # Clock period in ticks
system.cpu.branchPred.lookups                   97878                       # Number of BP lookups
system.cpu.branchPred.condPredicted             64641                       # Number of conditional branches predicted
system.cpu.branchPred.condIncorrect              5127                       # Number of conditional branches incorrect
system.cpu.branchPred.BTBLookups                42011                       # Number of BTB lookups
system.cpu.branchPred.BTBHits                   38043                       # Number of BTB hits
system.cpu.branchPred.BTBHitPct             90.554855                       # BTB Hit Percentage
system.cpu.branchPred.RASUsed                   11302                       # Number of times the RAS was used to get a target.
system.cpu.branchPred.RASIncorrect                  2                       # Number of incorrect RAS predictions.
system.cpu.branchPred.indirectLookups            6678                       # Number of indirect predictor lookups.
system.cpu.branchPred.indirectHits               4533                       # Number of indirect target hits.
system.cpu.branchPred.indirectMisses             2145                       # Number of indirect misses.
system.cpu.branchPred.indirectMispredicted          573                       # Number of mispredicted indirect branches.
system.cpu.dcache.demand_hits::.cpu.data       150447                       # number of demand (read+write) hits
system.cpu.dcache.demand_hits::total           150447                       # number of demand (read+write) hits
system.cpu.dcache.overall_hits::.cpu.data       150469                       # number of overall hits
system.cpu.dcache.overall_hits::total          150469                       # number of overall hits
system.cpu.dcache.demand_misses::.cpu.data          222                       # number of demand (read+write) misses
system.cpu.dcache.demand_misses::total            222                       # number of demand (read+write) misses
system.cpu.dcache.overall_misses::.cpu.data          233                       # number of overall misses
system.cpu.dcache.overall_misses::total           233                       # number of overall misses
system.cpu.dcache.demand_miss_latency::.cpu.data     20378500                       # number of demand (read+write) miss cycles
system.cpu.dcache.demand_miss_latency::total     20378500                       # number of demand (read+write) miss cycles
system.cpu.dcache.overall_miss_latency::.cpu.data     20378500                       # number of overall miss cycles
system.cpu.dcache.overall_miss_latency::total     20378500                       # number of overall miss cycles
system.cpu.dcache.demand_accesses::.cpu.data       150669                       # number of demand (read+write) accesses
system.cpu.dcache.demand_accesses::total       150669                       # number of demand (read+write) accesses
system.cpu.dcache.overall_accesses::.cpu.data       150702                       # number of overall (read+write) accesses
system.cpu.dcache.overall_accesses::total       150702                       # number of overall (read+write) accesses
system.cpu.dcache.demand_miss_rate::.cpu.data     0.001473                       # miss rate for demand accesses
system.cpu.dcache.demand_miss_rate::total     0.001473                       # miss rate for demand accesses
system.cpu.dcache.overall_miss_rate::.cpu.data     0.001546                       # miss rate for overall accesses
system.cpu.dcache.overall_miss_rate::total     0.001546                       # miss rate for overall accesses
system.cpu.dcache.demand_avg_miss_latency::.cpu.data 91795.045045                       # average overall miss latency
system.cpu.dcache.demand_avg_miss_latency::total 91795.045045                       # average overall miss latency
system.cpu.dcache.overall_avg_miss_latency::.cpu.data 87461.373391                       # average overall miss latency
system.cpu.dcache.overall_avg_miss_latency::total 87461.373391                       # average overall miss latency
system.cpu.dcache.blocked_cycles::no_mshrs            0                       # number of cycles access was blocked
system.cpu.dcache.blocked_cycles::no_targets            0                       # number of cycles access was blocked
system.cpu.dcache.blocked::no_mshrs                 0                       # number of cycles access was blocked
system.cpu.dcache.blocked::no_targets               0                       # number of cycles access was blocked
system.cpu.dcache.avg_blocked_cycles::no_mshrs          nan                       # average number of cycles each access was blocked
system.cpu.dcache.avg_blocked_cycles::no_targets          nan                       # average number of cycles each access was blocked
system.cpu.dcache.demand_mshr_hits::.cpu.data           55                       # number of demand (read+write) MSHR hits
system.cpu.dcache.demand_mshr_hits::total           55                       # number of demand (read+write) MSHR hits
system.cpu.dcache.overall_mshr_hits::.cpu.data           55                       # number of overall MSHR hits
system.cpu.dcache.overall_mshr_hits::total           55                       # number of overall MSHR hits
system.cpu.dcache.demand_mshr_misses::.cpu.data          167                       # number of demand (read+write) MSHR misses
system.cpu.dcache.demand_mshr_misses::total          167                       # number of demand (read+write) MSHR misses
system.cpu.dcache.overall_mshr_misses::.cpu.data          175                       # number of overall MSHR misses
system.cpu.dcache.overall_mshr_misses::total          175                       # number of overall MSHR misses
system.cpu.dcache.demand_mshr_miss_latency::.cpu.data     15312000                       # number of demand (read+write) MSHR miss cycles
system.cpu.dcache.demand_mshr_miss_latency::total     15312000                       # number of demand (read+write) MSHR miss cycles
system.cpu.dcache.overall_mshr_miss_latency::.cpu.data     16069500                       # number of overall MSHR miss cycles
system.cpu.dcache.overall_mshr_miss_latency::total     16069500                       # number of overall MSHR miss cycles
system.cpu.dcache.demand_mshr_miss_rate::.cpu.data     0.001108                       # mshr miss rate for demand accesses
system.cpu.dcache.demand_mshr_miss_rate::total     0.001108                       # mshr miss rate for demand accesses
system.cpu.dcache.overall_mshr_miss_rate::.cpu.data     0.001161                       # mshr miss rate for overall accesses
system.cpu.dcache.overall_mshr_miss_rate::total     0.001161                       # mshr miss rate for overall accesses
system.cpu.dcache.demand_avg_mshr_miss_latency::.cpu.data 91688.622754                       # average overall mshr miss latency
system.cpu.dcache.demand_avg_mshr_miss_latency::total 91688.622754                       # average overall mshr miss latency
system.cpu.dcache.overall_avg_mshr_miss_latency::.cpu.data 91825.714286                       # average overall mshr miss latency
system.cpu.dcache.overall_avg_mshr_miss_latency::total 91825.714286                       # average overall mshr miss latency
system.cpu.dcache.replacements                      0                       # number of replacements
system.cpu.dcache.ReadReq_hits::.cpu.data        81568                       # number of ReadReq hits
system.cpu.dcache.ReadReq_hits::total           81568                       # number of ReadReq hits
system.cpu.dcache.ReadReq_misses::.cpu.data          106                       # number of ReadReq misses
system.cpu.dcache.ReadReq_misses::total           106                       # number of ReadReq misses
system.cpu.dcache.ReadReq_miss_latency::.cpu.data      9981500                       # number of ReadReq miss cycles
system.cpu.dcache.ReadReq_miss_latency::total      9981500                       # number of ReadReq miss cycles
system.cpu.dcache.ReadReq_accesses::.cpu.data        81674                       # number of ReadReq accesses(hits+misses)
system.cpu.dcache.ReadReq_accesses::total        81674                       # number of ReadReq accesses(hits+misses)
system.cpu.dcache.ReadReq_miss_rate::.cpu.data     0.001298                       # miss rate for ReadReq accesses
system.cpu.dcache.ReadReq_miss_rate::total     0.001298                       # miss rate for ReadReq accesses
system.cpu.dcache.ReadReq_avg_miss_latency::.cpu.data 94165.094340                       # average ReadReq miss latency
system.cpu.dcache.ReadReq_avg_miss_latency::total 94165.094340                       # average ReadReq miss latency
system.cpu.dcache.ReadReq_mshr_hits::.cpu.data            6                       # number of ReadReq MSHR hits
system.cpu.dcache.ReadReq_mshr_hits::total            6                       # number of ReadReq MSHR hits
system.cpu.dcache.ReadReq_mshr_misses::.cpu.data          100                       # number of ReadReq MSHR misses
system.cpu.dcache.ReadReq_mshr_misses::total          100                       # number of ReadReq MSHR misses
system.cpu.dcache.ReadReq_mshr_miss_latency::.cpu.data      9388500                       # number of ReadReq MSHR miss cycles
system.cpu.dcache.ReadReq_mshr_miss_latency::total      9388500                       # number of ReadReq MSHR miss cycles
system.cpu.dcache.ReadReq_mshr_miss_rate::.cpu.data     0.001224                       # mshr miss rate for ReadReq accesses
system.cpu.dcache.ReadReq_mshr_miss_rate::total     0.001224                       # mshr miss rate for ReadReq accesses
system.cpu.dcache.ReadReq_avg_mshr_miss_latency::.cpu.data        93885                       # average ReadReq mshr miss latency
system.cpu.dcache.ReadReq_avg_mshr_miss_latency::total        93885                       # average ReadReq mshr miss latency
system.cpu.dcache.WriteReq_hits::.cpu.data        68879                       # number of WriteReq hits
system.cpu.dcache.WriteReq_hits::total          68879                       # number of WriteReq hits
system.cpu.dcache.WriteReq_misses::.cpu.data          116                       # number of WriteReq misses
system.cpu.dcache.WriteReq_misses::total          116                       # number of WriteReq misses
system.cpu.dcache.WriteReq_miss_latency::.cpu.data     10397000                       # number of WriteReq miss cycles
system.cpu.dcache.WriteReq_miss_latency::total     10397000                       # number of WriteReq miss cycles
system.cpu.dcache.WriteReq_accesses::.cpu.data        68995                       # number of WriteReq accesses(hits+misses)
system.cpu.dcache.WriteReq_accesses::total        68995                       # number of WriteReq accesses(hits+misses)
system.cpu.dcache.WriteReq_miss_rate::.cpu.data     0.001681                       # miss rate for WriteReq accesses
system.cpu.dcache.WriteReq_miss_rate::total     0.001681                       # miss rate for WriteReq accesses
system.cpu.dcache.WriteReq_avg_miss_latency::.cpu.data 89629.310345                       # average WriteReq miss latency
system.cpu.dcache.WriteReq_avg_miss_latency::total 89629.310345                       # average WriteReq miss latency
system.cpu.dcache.WriteReq_mshr_hits::.cpu.data           49                       # number of WriteReq MSHR hits
system.cpu.dcache.WriteReq_mshr_hits::total           49                       # number of WriteReq MSHR hits
system.cpu.dcache.WriteReq_mshr_misses::.cpu.data           67                       # number of WriteReq MSHR misses
system.cpu.dcache.WriteReq_mshr_misses::total           67                       # number of WriteReq MSHR misses
system.cpu.dcache.WriteReq_mshr_miss_latency::.cpu.data      5923500                       # number of WriteReq MSHR miss cycles
system.cpu.dcache.WriteReq_mshr_miss_latency::total      5923500                       # number of WriteReq MSHR miss cycles
system.cpu.dcache.WriteReq_mshr_miss_rate::.cpu.data     0.000971                       # mshr miss rate for WriteReq accesses
system.cpu.dcache.WriteReq_mshr_miss_rate::total     0.000971                       # mshr miss rate for WriteReq accesses
system.cpu.dcache.WriteReq_avg_mshr_miss_latency::.cpu.data 88410.447761                       # average WriteReq mshr miss latency
system.cpu.dcache.WriteReq_avg_mshr_miss_latency::total 88410.447761                       # average WriteReq mshr miss latency
system.cpu.dcache.SoftPFReq_hits::.cpu.data           22                       # number of SoftPFReq hits
system.cpu.dcache.SoftPFReq_hits::total            22                       # number of SoftPFReq hits
system.cpu.dcache.SoftPFReq_misses::.cpu.data           11                       # number of SoftPFReq misses
system.cpu.dcache.SoftPFReq_misses::total           11                       # number of SoftPFReq misses
system.cpu.dcache.SoftPFReq_accesses::.cpu.data           33                       # number of SoftPFReq accesses(hits+misses)
system.cpu.dcache.SoftPFReq_accesses::total           33                       # number of SoftPFReq accesses(hits+misses)
system.cpu.dcache.SoftPFReq_miss_rate::.cpu.data     0.333333                       # miss rate for SoftPFReq accesses
system.cpu.dcache.SoftPFReq_miss_rate::total     0.333333                       # miss rate for SoftPFReq accesses
system.cpu.dcache.SoftPFReq_mshr_misses::.cpu.data            8                       # number of SoftPFReq MSHR misses
system.cpu.dcache.SoftPFReq_mshr_misses::total            8                       # number of SoftPFReq MSHR misses
system.cpu.dcache.SoftPFReq_mshr_miss_latency::.cpu.data       757500                       # number of SoftPFReq MSHR miss cycles
system.cpu.dcache.SoftPFReq_mshr_miss_latency::total       757500                       # number of SoftPFReq MSHR miss cycles
system.cpu.dcache.SoftPFReq_mshr_miss_rate::.cpu.data     0.242424                       # mshr miss rate for SoftPFReq accesses
system.cpu.dcache.SoftPFReq_mshr_miss_rate::total     0.242424                       # mshr miss rate for SoftPFReq accesses
system.cpu.dcache.SoftPFReq_avg_mshr_miss_latency::.cpu.data 94687.500000                       # average SoftPFReq mshr miss latency
system.cpu.dcache.SoftPFReq_avg_mshr_miss_latency::total 94687.500000                       # average SoftPFReq mshr miss latency
system.cpu.dcache.LoadLockedReq_hits::.cpu.data         1018                       # number of LoadLockedReq hits
system.cpu.dcache.LoadLockedReq_hits::total         1018                       # number of LoadLockedReq hits
system.cpu.dcache.LoadLockedReq_accesses::.cpu.data         1018                       # number of LoadLockedReq accesses(hits+misses)
system.cpu.dcache.LoadLockedReq_accesses::total         1018                       # number of LoadLockedReq accesses(hits+misses)
system.cpu.dcache.StoreCondReq_hits::.cpu.data         1018                       # number of StoreCondReq hits
system.cpu.dcache.StoreCondReq_hits::total         1018                       # number of StoreCondReq hits
system.cpu.dcache.StoreCondReq_accesses::.cpu.data         1018                       # number of StoreCondReq accesses(hits+misses)
system.cpu.dcache.StoreCondReq_accesses::total         1018                       # number of StoreCondReq accesses(hits+misses)
system.cpu.dcache.power_state.pwrStateResidencyTicks::UNDEFINED    413587000                       # Cumulative time (in ticks) in various power states
system.cpu.dcache.tags.tagsinuse           152.704193                       # Cycle average of tags in use
system.cpu.dcache.tags.total_refs              152680                       # Total number of references to valid blocks.
system.cpu.dcache.tags.sampled_refs               175                       # Sample count of references to valid blocks.
system.cpu.dcache.tags.avg_refs            872.457143                       # Average number of references to valid blocks.
system.cpu.dcache.tags.warmup_cycle            187000                       # Cycle when the warmup percentage was hit.
system.cpu.dcache.tags.occ_blocks::.cpu.data   152.704193                       # Average occupied blocks per requestor
system.cpu.dcache.tags.occ_percent::.cpu.data     0.149125                       # Average percentage of cache occupancy
system.cpu.dcache.tags.occ_percent::total     0.149125                       # Average percentage of cache occupancy
system.cpu.dcache.tags.occ_task_id_blocks::1024          175                       # Occupied blocks per task id
system.cpu.dcache.tags.age_task_id_blocks_1024::0           15                       # Occupied blocks per task id
system.cpu.dcache.tags.age_task_id_blocks_1024::2          160                       # Occupied blocks per task id
system.cpu.dcache.tags.occ_task_id_percent::1024     0.170898                       # Percentage of cache occupancy per task id
system.cpu.dcache.tags.tag_accesses            305651                       # Number of tag accesses
system.cpu.dcache.tags.data_accesses           305651                       # Number of data accesses
system.cpu.dcache.tags.power_state.pwrStateResidencyTicks::UNDEFINED    413587000                       # Cumulative time (in ticks) in various power states
system.cpu.dtb.instHits                             0                       # ITB inst hits
system.cpu.dtb.instMisses                           0                       # ITB inst misses
system.cpu.dtb.readHits                             0                       # DTB read hits
system.cpu.dtb.readMisses                           0                       # DTB read misses
system.cpu.dtb.writeHits                            0                       # DTB write hits
system.cpu.dtb.writeMisses                          0                       # DTB write misses
system.cpu.dtb.inserts                              0                       # Number of times an entry is inserted into the TLB
system.cpu.dtb.flushTlb                             0                       # Number of times complete TLB was flushed
system.cpu.dtb.flushTlbMva                          0                       # Number of times TLB was flushed by MVA
system.cpu.dtb.flushTlbMvaAsid                      0                       # Number of times TLB was flushed by MVA & ASID
system.cpu.dtb.flushTlbAsid                         0                       # Number of times TLB was flushed by ASID
system.cpu.dtb.flushedEntries                       0                       # Number of entries that have been flushed from TLB
system.cpu.dtb.alignFaults                          0                       # Number of TLB faults due to alignment restrictions
system.cpu.dtb.prefetchFaults                       0                       # Number of TLB faults due to prefetch
system.cpu.dtb.domainFaults                         0                       # Number of TLB faults due to domain restrictions
system.cpu.dtb.permsFaults                          0                       # Number of TLB faults due to permissions restrictions
system.cpu.dtb.readAccesses                         0                       # DTB read accesses
system.cpu.dtb.writeAccesses                        0                       # DTB write accesses
system.cpu.dtb.instAccesses                         0                       # ITB inst accesses
system.cpu.dtb.hits                                 0                       # Total TLB (inst and data) hits
system.cpu.dtb.misses                               0                       # Total TLB (inst and data) misses
system.cpu.dtb.accesses                             0                       # Total TLB (inst and data) accesses
system.cpu.dtb.stage2_mmu.stage2_tlb.instHits            0                       # ITB inst hits
system.cpu.dtb.stage2_mmu.stage2_tlb.instMisses            0                       # ITB inst misses
system.cpu.dtb.stage2_mmu.stage2_tlb.readHits            0                       # DTB read hits
system.cpu.dtb.stage2_mmu.stage2_tlb.readMisses            0                       # DTB read misses
system.cpu.dtb.stage2_mmu.stage2_tlb.writeHits            0                       # DTB write hits
system.cpu.dtb.stage2_mmu.stage2_tlb.writeMisses            0                       # DTB write misses
system.cpu.dtb.stage2_mmu.stage2_tlb.inserts            0                       # Number of times an entry is inserted into the TLB
system.cpu.dtb.stage2_mmu.stage2_tlb.flushTlb            0                       # Number of times complete TLB was flushed
system.cpu.dtb.stage2_mmu.stage2_tlb.flushTlbMva            0                       # Number of times TLB was flushed by MVA
system.cpu.dtb.stage2_mmu.stage2_tlb.flushTlbMvaAsid            0                       # Number of times TLB was flushed by MVA & ASID
system.cpu.dtb.stage2_mmu.stage2_tlb.flushTlbAsid            0                       # Number of times TLB was flushed by ASID
system.cpu.dtb.stage2_mmu.stage2_tlb.flushedEntries            0                       # Number of entries that have been flushed from TLB
system.cpu.dtb.stage2_mmu.stage2_tlb.alignFaults            0                       # Number of TLB faults due to alignment restrictions
system.cpu.dtb.stage2_mmu.stage2_tlb.prefetchFaults            0                       # Number of TLB faults due to prefetch
system.cpu.dtb.stage2_mmu.stage2_tlb.domainFaults            0                       # Number of TLB faults due to domain restrictions
system.cpu.dtb.stage2_mmu.stage2_tlb.permsFaults            0                       # Number of TLB faults due to permissions restrictions
system.cpu.dtb.stage2_mmu.stage2_tlb.readAccesses            0                       # DTB read accesses
system.cpu.dtb.stage2_mmu.stage2_tlb.writeAccesses            0                       # DTB write accesses
system.cpu.dtb.stage2_mmu.stage2_tlb.instAccesses            0                       # ITB inst accesses
system.cpu.dtb.stage2_mmu.stage2_tlb.hits            0                       # Total TLB (inst and data) hits
system.cpu.dtb.stage2_mmu.stage2_tlb.misses            0                       # Total TLB (inst and data) misses
system.cpu.dtb.stage2_mmu.stage2_tlb.accesses            0                       # Total TLB (inst and data) accesses
system.cpu.dtb.stage2_mmu.stage2_tlb.walker.walks            0                       # Table walker walks requested
system.cpu.dtb.stage2_mmu.stage2_tlb.walker.requestOrigin_Requested::Data            0                       # Table walker requests started/completed, data/inst
system.cpu.dtb.stage2_mmu.stage2_tlb.walker.requestOrigin_Requested::Inst            0                       # Table walker requests started/completed, data/inst
system.cpu.dtb.stage2_mmu.stage2_tlb.walker.requestOrigin_Requested::total            0                       # Table walker requests started/completed, data/inst
system.cpu.dtb.stage2_mmu.stage2_tlb.walker.requestOrigin_Completed::Data            0                       # Table walker requests started/completed, data/inst
system.cpu.dtb.stage2_mmu.stage2_tlb.walker.requestOrigin_Completed::Inst            0                       # Table walker requests started/completed, data/inst
system.cpu.dtb.stage2_mmu.stage2_tlb.walker.requestOrigin_Completed::total            0                       # Table walker requests started/completed, data/inst
system.cpu.dtb.stage2_mmu.stage2_tlb.walker.requestOrigin::total            0                       # Table walker requests started/completed, data/inst
system.cpu.dtb.stage2_mmu.stage2_tlb.walker.power_state.pwrStateResidencyTicks::UNDEFINED    413587000                       # Cumulative time (in ticks) in various power states
system.cpu.dtb.walker.walks                         0                       # Table walker walks requested
system.cpu.dtb.walker.requestOrigin_Requested::Data            0                       # Table walker requests started/completed, data/inst
system.cpu.dtb.walker.requestOrigin_Requested::Inst            0                       # Table walker requests started/completed, data/inst
system.cpu.dtb.walker.requestOrigin_Requested::total            0                       # Table walker requests started/completed, data/inst
system.cpu.dtb.walker.requestOrigin_Completed::Data            0                       # Table walker requests started/completed, data/inst
system.cpu.dtb.walker.requestOrigin_Completed::Inst            0                       # Table walker requests started/completed, data/inst
system.cpu.dtb.walker.requestOrigin_Completed::total            0                       # Table walker requests started/completed, data/inst
system.cpu.dtb.walker.requestOrigin::total            0                       # Table walker requests started/completed, data/inst
system.cpu.dtb.walker.power_state.pwrStateResidencyTicks::UNDEFINED    413587000                       # Cumulative time (in ticks) in various power states
system.cpu.fetch2.intInstructions              263534                       # Number of integer instructions successfully decoded
system.cpu.fetch2.fpInstructions                    0                       # Number of floating point instructions successfully decoded
system.cpu.fetch2.vecInstructions                   0                       # Number of SIMD instructions successfully decoded
system.cpu.fetch2.loadInstructions              56279                       # Number of memory load instructions successfully decoded
system.cpu.fetch2.storeInstructions             29365                       # Number of memory store instructions successfully decoded
system.cpu.fetch2.amoInstructions                   0                       # Number of memory atomic instructions successfully decoded
system.cpu.icache.demand_hits::.cpu.inst       146761                       # number of demand (read+write) hits
system.cpu.icache.demand_hits::total           146761                       # number of demand (read+write) hits
system.cpu.icache.overall_hits::.cpu.inst       146761                       # number of overall hits
system.cpu.icache.overall_hits::total          146761                       # number of overall hits
system.cpu.icache.demand_misses::.cpu.inst         4926                       # number of demand (read+write) misses
system.cpu.icache.demand_misses::total           4926                       # number of demand (read+write) misses
system.cpu.icache.overall_misses::.cpu.inst         4926                       # number of overall misses
system.cpu.icache.overall_misses::total          4926                       # number of overall misses
system.cpu.icache.demand_miss_latency::.cpu.inst    139773000                       # number of demand (read+write) miss cycles
system.cpu.icache.demand_miss_latency::total    139773000                       # number of demand (read+write) miss cycles
system.cpu.icache.overall_miss_latency::.cpu.inst    139773000                       # number of overall miss cycles
system.cpu.icache.overall_miss_latency::total    139773000                       # number of overall miss cycles
system.cpu.icache.demand_accesses::.cpu.inst       151687                       # number of demand (read+write) accesses
system.cpu.icache.demand_accesses::total       151687                       # number of demand (read+write) accesses
system.cpu.icache.overall_accesses::.cpu.inst       151687                       # number of overall (read+write) accesses
system.cpu.icache.overall_accesses::total       151687                       # number of overall (read+write) accesses
system.cpu.icache.demand_miss_rate::.cpu.inst     0.032475                       # miss rate for demand accesses
system.cpu.icache.demand_miss_rate::total     0.032475                       # miss rate for demand accesses
system.cpu.icache.overall_miss_rate::.cpu.inst     0.032475                       # miss rate for overall accesses
system.cpu.icache.overall_miss_rate::total     0.032475                       # miss rate for overall accesses
system.cpu.icache.demand_avg_miss_latency::.cpu.inst 28374.543240                       # average overall miss latency
system.cpu.icache.demand_avg_miss_latency::total 28374.543240                       # average overall miss latency
system.cpu.icache.overall_avg_miss_latency::.cpu.inst 28374.543240                       # average overall miss latency
system.cpu.icache.overall_avg_miss_latency::total 28374.543240                       # average overall miss latency
system.cpu.icache.blocked_cycles::no_mshrs            0                       # number of cycles access was blocked
system.cpu.icache.blocked_cycles::no_targets            0                       # number of cycles access was blocked
system.cpu.icache.blocked::no_mshrs                 0                       # number of cycles access was blocked
system.cpu.icache.blocked::no_targets               0                       # number of cycles access was blocked
system.cpu.icache.avg_blocked_cycles::no_mshrs          nan                       # average number of cycles each access was blocked
system.cpu.icache.avg_blocked_cycles::no_targets          nan                       # average number of cycles each access was blocked
system.cpu.icache.writebacks::.writebacks         4601                       # number of writebacks
system.cpu.icache.writebacks::total              4601                       # number of writebacks
system.cpu.icache.demand_mshr_misses::.cpu.inst         4926                       # number of demand (read+write) MSHR misses
system.cpu.icache.demand_mshr_misses::total         4926                       # number of demand (read+write) MSHR misses
system.cpu.icache.overall_mshr_misses::.cpu.inst         4926                       # number of overall MSHR misses
system.cpu.icache.overall_mshr_misses::total         4926                       # number of overall MSHR misses
system.cpu.icache.demand_mshr_miss_latency::.cpu.inst    134847000                       # number of demand (read+write) MSHR miss cycles
system.cpu.icache.demand_mshr_miss_latency::total    134847000                       # number of demand (read+write) MSHR miss cycles
system.cpu.icache.overall_mshr_miss_latency::.cpu.inst    134847000                       # number of overall MSHR miss cycles
system.cpu.icache.overall_mshr_miss_latency::total    134847000                       # number of overall MSHR miss cycles
system.cpu.icache.demand_mshr_miss_rate::.cpu.inst     0.032475                       # mshr miss rate for demand accesses
system.cpu.icache.demand_mshr_miss_rate::total     0.032475                       # mshr miss rate for demand accesses
system.cpu.icache.overall_mshr_miss_rate::.cpu.inst     0.032475                       # mshr miss rate for overall accesses
system.cpu.icache.overall_mshr_miss_rate::total     0.032475                       # mshr miss rate for overall accesses
system.cpu.icache.demand_avg_mshr_miss_latency::.cpu.inst 27374.543240                       # average overall mshr miss latency
system.cpu.icache.demand_avg_mshr_miss_latency::total 27374.543240                       # average overall mshr miss latency
system.cpu.icache.overall_avg_mshr_miss_latency::.cpu.inst 27374.543240                       # average overall mshr miss latency
system.cpu.icache.overall_avg_mshr_miss_latency::total 27374.543240                       # average overall mshr miss latency
system.cpu.icache.replacements                   4601                       # number of replacements
system.cpu.icache.ReadReq_hits::.cpu.inst       146761                       # number of ReadReq hits
system.cpu.icache.ReadReq_hits::total          146761                       # number of ReadReq hits
system.cpu.icache.ReadReq_misses::.cpu.inst         4926                       # number of ReadReq misses
system.cpu.icache.ReadReq_misses::total          4926                       # number of ReadReq misses
system.cpu.icache.ReadReq_miss_latency::.cpu.inst    139773000                       # number of ReadReq miss cycles
system.cpu.icache.ReadReq_miss_latency::total    139773000                       # number of ReadReq miss cycles
system.cpu.icache.ReadReq_accesses::.cpu.inst       151687                       # number of ReadReq accesses(hits+misses)
system.cpu.icache.ReadReq_accesses::total       151687                       # number of ReadReq accesses(hits+misses)
system.cpu.icache.ReadReq_miss_rate::.cpu.inst     0.032475                       # miss rate for ReadReq accesses
system.cpu.icache.ReadReq_miss_rate::total     0.032475                       # miss rate for ReadReq accesses
system.cpu.icache.ReadReq_avg_miss_latency::.cpu.inst 28374.543240                       # average ReadReq miss latency
system.cpu.icache.ReadReq_avg_miss_latency::total 28374.543240                       # average ReadReq miss latency
system.cpu.icache.ReadReq_mshr_misses::.cpu.inst         4926                       # number of ReadReq MSHR misses
system.cpu.icache.ReadReq_mshr_misses::total         4926                       # number of ReadReq MSHR misses
system.cpu.icache.ReadReq_mshr_miss_latency::.cpu.inst    134847000                       # number of ReadReq MSHR miss cycles
system.cpu.icache.ReadReq_mshr_miss_latency::total    134847000                       # number of ReadReq MSHR miss cycles
system.cpu.icache.ReadReq_mshr_miss_rate::.cpu.inst     0.032475                       # mshr miss rate for ReadReq accesses
system.cpu.icache.ReadReq_mshr_miss_rate::total     0.032475                       # mshr miss rate for ReadReq accesses
system.cpu.icache.ReadReq_avg_mshr_miss_latency::.cpu.inst 27374.543240                       # average ReadReq mshr miss latency
system.cpu.icache.ReadReq_avg_mshr_miss_latency::total 27374.543240                       # average ReadReq mshr miss latency
system.cpu.icache.power_state.pwrStateResidencyTicks::UNDEFINED    413587000                       # Cumulative time (in ticks) in various power states
system.cpu.icache.tags.tagsinuse           285.203092                       # Cycle average of tags in use
system.cpu.icache.tags.total_refs              151687                       # Total number of references to valid blocks.
system.cpu.icache.tags.sampled_refs              4926                       # Sample count of references to valid blocks.
system.cpu.icache.tags.avg_refs             30.793138                       # Average number of references to valid blocks.
system.cpu.icache.tags.warmup_cycle             96000                       # Cycle when the warmup percentage was hit.
system.cpu.icache.tags.occ_blocks::.cpu.inst   285.203092                       # Average occupied blocks per requestor
system.cpu.icache.tags.occ_percent::.cpu.inst     0.557037                       # Average percentage of cache occupancy
system.cpu.icache.tags.occ_percent::total     0.557037                       # Average percentage of cache occupancy
system.cpu.icache.tags.occ_task_id_blocks::1024          325                       # Occupied blocks per task id
system.cpu.icache.tags.age_task_id_blocks_1024::0           46                       # Occupied blocks per task id
system.cpu.icache.tags.age_task_id_blocks_1024::2          279                       # Occupied blocks per task id
system.cpu.icache.tags.occ_task_id_percent::1024     0.634766                       # Percentage of cache occupancy per task id
system.cpu.icache.tags.tag_accesses            308300                       # Number of tag accesses
system.cpu.icache.tags.data_accesses           308300                       # Number of data accesses
system.cpu.icache.tags.power_state.pwrStateResidencyTicks::UNDEFINED    413587000                       # Cumulative time (in ticks) in various power states
system.cpu.itb.instHits                             0                       # ITB inst hits
system.cpu.itb.instMisses                           0                       # ITB inst misses
system.cpu.itb.readHits                             0                       # DTB read hits
system.cpu.itb.readMisses                           0                       # DTB read misses
system.cpu.itb.writeHits                            0                       # DTB write hits
system.cpu.itb.writeMisses                          0                       # DTB write misses
system.cpu.itb.inserts                              0                       # Number of times an entry is inserted into the TLB
system.cpu.itb.flushTlb                             0                       # Number of times complete TLB was flushed
system.cpu.itb.flushTlbMva                          0                       # Number of times TLB was flushed by MVA
system.cpu.itb.flushTlbMvaAsid                      0                       # Number of times TLB was flushed by MVA & ASID
system.cpu.itb.flushTlbAsid                         0                       # Number of times TLB was flushed by ASID
system.cpu.itb.flushedEntries                       0                       # Number of entries that have been flushed from TLB
system.cpu.itb.alignFaults                          0                       # Number of TLB faults due to alignment restrictions
system.cpu.itb.prefetchFaults                       0                       # Number of TLB faults due to prefetch
system.cpu.itb.domainFaults                         0                       # Number of TLB faults due to domain restrictions
system.cpu.itb.permsFaults                          0                       # Number of TLB faults due to permissions restrictions
system.cpu.itb.readAccesses                         0                       # DTB read accesses
system.cpu.itb.writeAccesses                        0                       # DTB write accesses
system.cpu.itb.instAccesses                         0                       # ITB inst accesses
system.cpu.itb.hits                                 0                       # Total TLB (inst and data) hits
system.cpu.itb.misses                               0                       # Total TLB (inst and data) misses
system.cpu.itb.accesses                             0                       # Total TLB (inst and data) accesses
system.cpu.itb.stage2_mmu.stage2_tlb.instHits            0                       # ITB inst hits
system.cpu.itb.stage2_mmu.stage2_tlb.instMisses            0                       # ITB inst misses
system.cpu.itb.stage2_mmu.stage2_tlb.readHits            0                       # DTB read hits
system.cpu.itb.stage2_mmu.stage2_tlb.readMisses            0                       # DTB read misses
system.cpu.itb.stage2_mmu.stage2_tlb.writeHits            0                       # DTB write hits
system.cpu.itb.stage2_mmu.stage2_tlb.writeMisses            0                       # DTB write misses
system.cpu.itb.stage2_mmu.stage2_tlb.inserts            0                       # Number of times an entry is inserted into the TLB
system.cpu.itb.stage2_mmu.stage2_tlb.flushTlb            0                       # Number of times complete TLB was flushed
system.cpu.itb.stage2_mmu.stage2_tlb.flushTlbMva            0                       # Number of times TLB was flushed by MVA
system.cpu.itb.stage2_mmu.stage2_tlb.flushTlbMvaAsid            0                       # Number of times TLB was flushed by MVA & ASID
system.cpu.itb.stage2_mmu.stage2_tlb.flushTlbAsid            0                       # Number of times TLB was flushed by ASID
system.cpu.itb.stage2_mmu.stage2_tlb.flushedEntries            0                       # Number of entries that have been flushed from TLB
system.cpu.itb.stage2_mmu.stage2_tlb.alignFaults            0                       # Number of TLB faults due to alignment restrictions
system.cpu.itb.stage2_mmu.stage2_tlb.prefetchFaults            0                       # Number of TLB faults due to prefetch
system.cpu.itb.stage2_mmu.stage2_tlb.domainFaults            0                       # Number of TLB faults due to domain restrictions
system.cpu.itb.stage2_mmu.stage2_tlb.permsFaults            0                       # Number of TLB faults due to permissions restrictions
system.cpu.itb.stage2_mmu.stage2_tlb.readAccesses            0                       # DTB read accesses
system.cpu.itb.stage2_mmu.stage2_tlb.writeAccesses            0                       # DTB write accesses
system.cpu.itb.stage2_mmu.stage2_tlb.instAccesses            0                       # ITB inst accesses
system.cpu.itb.stage2_mmu.stage2_tlb.hits            0                       # Total TLB (inst and data) hits
system.cpu.itb.stage2_mmu.stage2_tlb.misses            0                       # Total TLB (inst and data) misses
system.cpu.itb.stage2_mmu.stage2_tlb.accesses            0                       # Total TLB (inst and data) accesses
system.cpu.itb.stage2_mmu.stage2_tlb.walker.walks            0                       # Table walker walks requested
system.cpu.itb.stage2_mmu.stage2_tlb.walker.requestOrigin_Requested::Data            0                       # Table walker requests started/completed, data/inst
system.cpu.itb.stage2_mmu.stage2_tlb.walker.requestOrigin_Requested::Inst            0                       # Table walker requests started/completed, data/inst
system.cpu.itb.stage2_mmu.stage2_tlb.walker.requestOrigin_Requested::total            0                       # Table walker requests started/completed, data/inst
system.cpu.itb.stage2_mmu.stage2_tlb.walker.requestOrigin_Completed::Data            0                       # Table walker requests started/completed, data/inst
system.cpu.itb.stage2_mmu.stage2_tlb.walker.requestOrigin_Completed::Inst            0                       # Table walker requests started/completed, data/inst
system.cpu.itb.stage2_mmu.stage2_tlb.walker.requestOrigin_Completed::total            0                       # Table walker requests started/completed, data/inst
system.cpu.itb.stage2_mmu.stage2_tlb.walker.requestOrigin::total            0                       # Table walker requests started/completed, data/inst
system.cpu.itb.stage2_mmu.stage2_tlb.walker.power_state.pwrStateResidencyTicks::UNDEFINED    413587000                       # Cumulative time (in ticks) in various power states
system.cpu.itb.walker.walks                         0                       # Table walker walks requested
system.cpu.itb.walker.requestOrigin_Requested::Data            0                       # Table walker requests started/completed, data/inst
system.cpu.itb.walker.requestOrigin_Requested::Inst            0                       # Table walker requests started/completed, data/inst
system.cpu.itb.walker.requestOrigin_Requested::total            0                       # Table walker requests started/completed, data/inst
system.cpu.itb.walker.requestOrigin_Completed::Data            0                       # Table walker requests started/completed, data/inst
system.cpu.itb.walker.requestOrigin_Completed::Inst            0                       # Table walker requests started/completed, data/inst
system.cpu.itb.walker.requestOrigin_Completed::total            0                       # Table walker requests started/completed, data/inst
system.cpu.itb.walker.requestOrigin::total            0                       # Table walker requests started/completed, data/inst
system.cpu.itb.walker.power_state.pwrStateResidencyTicks::UNDEFINED    413587000                       # Cumulative time (in ticks) in various power states
system.cpu.power_state.pwrStateResidencyTicks::ON    413587000                       # Cumulative time (in ticks) in various power states
system.cpu.thread_0.numInsts                   422085                       # Number of Instructions committed
system.cpu.thread_0.numOps                     501899                       # Number of Ops committed
system.cpu.thread_0.numMemRefs                      0                       # Number of Memory References
system.cpu_clk_domain.clock                       500                       # Clock period in ticks
system.cpu_voltage_domain.voltage                   1                       # Voltage in Volts
system.mem_ctrls.avgPriority_.writebacks::samples       108.00                       # Average QoS priority value for accepted requests
system.mem_ctrls.avgPriority_.cpu.inst::samples       415.00                       # Average QoS priority value for accepted requests
system.mem_ctrls.avgPriority_.cpu.data::samples       175.00                       # Average QoS priority value for accepted requests
system.mem_ctrls.priorityMinLatency      0.000000047100                       # per QoS priority minimum request to response latency (s)
system.mem_ctrls.priorityMaxLatency      0.000748375100                       # per QoS priority maximum request to response latency (s)
system.mem_ctrls.numReadWriteTurnArounds            5                       # Number of turnarounds from READ to WRITE
system.mem_ctrls.numWriteReadTurnArounds            5                       # Number of turnarounds from WRITE to READ
system.mem_ctrls.numStayReadState                5874                       # Number of times bus staying in READ state
system.mem_ctrls.numStayWriteState                 75                       # Number of times bus staying in WRITE state
system.mem_ctrls.readReqs                        5101                       # Number of read requests accepted
system.mem_ctrls.writeReqs                       4595                       # Number of write requests accepted
system.mem_ctrls.readBursts                      5101                       # Number of controller read bursts, including those serviced by the write queue
system.mem_ctrls.writeBursts                     4595                       # Number of controller write bursts, including those merged in the write queue
system.mem_ctrls.servicedByWrQ                   4511                       # Number of controller read bursts serviced by the write queue
system.mem_ctrls.mergedWrBursts                  4487                       # Number of controller write bursts merged with an existing one
system.mem_ctrls.neitherReadNorWriteReqs            0                       # Number of requests that are neither read nor write
system.mem_ctrls.avgRdQLen                       1.02                       # Average read queue length when enqueuing
system.mem_ctrls.avgWrQLen                      26.24                       # Average write queue length when enqueuing
system.mem_ctrls.numRdRetry                         0                       # Number of times read queue was full causing retry
system.mem_ctrls.numWrRetry                         0                       # Number of times write queue was full causing retry
system.mem_ctrls.readPktSize::0                     0                       # Read request sizes (log2)
system.mem_ctrls.readPktSize::1                     0                       # Read request sizes (log2)
system.mem_ctrls.readPktSize::2                     0                       # Read request sizes (log2)
system.mem_ctrls.readPktSize::3                     0                       # Read request sizes (log2)
system.mem_ctrls.readPktSize::4                     0                       # Read request sizes (log2)
system.mem_ctrls.readPktSize::5                     0                       # Read request sizes (log2)
system.mem_ctrls.readPktSize::6                  5101                       # Read request sizes (log2)
system.mem_ctrls.writePktSize::0                    0                       # Write request sizes (log2)
system.mem_ctrls.writePktSize::1                    0                       # Write request sizes (log2)
system.mem_ctrls.writePktSize::2                    0                       # Write request sizes (log2)
system.mem_ctrls.writePktSize::3                    0                       # Write request sizes (log2)
system.mem_ctrls.writePktSize::4                    0                       # Write request sizes (log2)
system.mem_ctrls.writePktSize::5                    0                       # Write request sizes (log2)
system.mem_ctrls.writePktSize::6                 4595                       # Write request sizes (log2)
system.mem_ctrls.rdQLenPdf::0                     493                       # What read queue length does an incoming req see
system.mem_ctrls.rdQLenPdf::1                      93                       # What read queue length does an incoming req see
system.mem_ctrls.rdQLenPdf::2                       4                       # What read queue length does an incoming req see
system.mem_ctrls.rdQLenPdf::3                       0                       # What read queue length does an incoming req see
system.mem_ctrls.rdQLenPdf::4                       0                       # What read queue length does an incoming req see
system.mem_ctrls.rdQLenPdf::5                       0                       # What read queue length does an incoming req see
system.mem_ctrls.rdQLenPdf::6                       0                       # What read queue length does an incoming req see
system.mem_ctrls.rdQLenPdf::7                       0                       # What read queue length does an incoming req see
system.mem_ctrls.rdQLenPdf::8                       0                       # What read queue length does an incoming req see
system.mem_ctrls.rdQLenPdf::9                       0                       # What read queue length does an incoming req see
system.mem_ctrls.rdQLenPdf::10                      0                       # What read queue length does an incoming req see
system.mem_ctrls.rdQLenPdf::11                      0                       # What read queue length does an incoming req see
system.mem_ctrls.rdQLenPdf::12                      0                       # What read queue length does an incoming req see
system.mem_ctrls.rdQLenPdf::13                      0                       # What read queue length does an incoming req see
system.mem_ctrls.rdQLenPdf::14                      0                       # What read queue length does an incoming req see
system.mem_ctrls.rdQLenPdf::15                      0                       # What read queue length does an incoming req see
system.mem_ctrls.rdQLenPdf::16                      0                       # What read queue length does an incoming req see
system.mem_ctrls.rdQLenPdf::17                      0                       # What read queue length does an incoming req see
system.mem_ctrls.rdQLenPdf::18                      0                       # What read queue length does an incoming req see
system.mem_ctrls.rdQLenPdf::19                      0                       # What read queue length does an incoming req see
system.mem_ctrls.rdQLenPdf::20                      0                       # What read queue length does an incoming req see
system.mem_ctrls.rdQLenPdf::21                      0                       # What read queue length does an incoming req see
system.mem_ctrls.rdQLenPdf::22                      0                       # What read queue length does an incoming req see
system.mem_ctrls.rdQLenPdf::23                      0                       # What read queue length does an incoming req see
system.mem_ctrls.rdQLenPdf::24                      0                       # What read queue length does an incoming req see
system.mem_ctrls.rdQLenPdf::25                      0                       # What read queue length does an incoming req see
system.mem_ctrls.rdQLenPdf::26                      0                       # What read queue length does an incoming req see
system.mem_ctrls.rdQLenPdf::27                      0                       # What read queue length does an incoming req see
system.mem_ctrls.rdQLenPdf::28                      0                       # What read queue length does an incoming req see
system.mem_ctrls.rdQLenPdf::29                      0                       # What read queue length does an incoming req see
system.mem_ctrls.rdQLenPdf::30                      0                       # What read queue length does an incoming req see
system.mem_ctrls.rdQLenPdf::31                      0                       # What read queue length does an incoming req see
system.mem_ctrls.rdQLenPdf::32                      0                       # What read queue length does an incoming req see
system.mem_ctrls.rdQLenPdf::33                      0                       # What read queue length does an incoming req see
system.mem_ctrls.rdQLenPdf::34                      0                       # What read queue length does an incoming req see
system.mem_ctrls.rdQLenPdf::35                      0                       # What read queue length does an incoming req see
system.mem_ctrls.rdQLenPdf::36                      0                       # What read queue length does an incoming req see
system.mem_ctrls.rdQLenPdf::37                      0                       # What read queue length does an incoming req see
system.mem_ctrls.rdQLenPdf::38                      0                       # What read queue length does an incoming req see
system.mem_ctrls.rdQLenPdf::39                      0                       # What read queue length does an incoming req see
system.mem_ctrls.rdQLenPdf::40                      0                       # What read queue length does an incoming req see
system.mem_ctrls.rdQLenPdf::41                      0                       # What read queue length does an incoming req see
system.mem_ctrls.rdQLenPdf::42                      0                       # What read queue length does an incoming req see
system.mem_ctrls.rdQLenPdf::43                      0                       # What read queue length does an incoming req see
system.mem_ctrls.rdQLenPdf::44                      0                       # What read queue length does an incoming req see
system.mem_ctrls.rdQLenPdf::45                      0                       # What read queue length does an incoming req see
system.mem_ctrls.rdQLenPdf::46                      0                       # What read queue length does an incoming req see
system.mem_ctrls.rdQLenPdf::47                      0                       # What read queue length does an incoming req see
system.mem_ctrls.rdQLenPdf::48                      0                       # What read queue length does an incoming req see
system.mem_ctrls.rdQLenPdf::49                      0                       # What read queue length does an incoming req see
system.mem_ctrls.rdQLenPdf::50                      0                       # What read queue length does an incoming req see
system.mem_ctrls.rdQLenPdf::51                      0                       # What read queue length does an incoming req see
system.mem_ctrls.rdQLenPdf::52                      0                       # What read queue length does an incoming req see
system.mem_ctrls.rdQLenPdf::53                      0                       # What read queue length does an incoming req see
system.mem_ctrls.rdQLenPdf::54                      0                       # What read queue length does an incoming req see
system.mem_ctrls.rdQLenPdf::55                      0                       # What read queue length does an incoming req see
system.mem_ctrls.rdQLenPdf::56                      0                       # What read queue length does an incoming req see
system.mem_ctrls.rdQLenPdf::57                      0                       # What read queue length does an incoming req see
system.mem_ctrls.rdQLenPdf::58                      0                       # What read queue length does an incoming req see
system.mem_ctrls.rdQLenPdf::59                      0                       # What read queue length does an incoming req see
system.mem_ctrls.rdQLenPdf::60                      0                       # What read queue length does an incoming req see
system.mem_ctrls.rdQLenPdf::61                      0                       # What read queue length does an incoming req see
system.mem_ctrls.rdQLenPdf::62                      0                       # What read queue length does an incoming req see
system.mem_ctrls.rdQLenPdf::63                      0                       # What read queue length does an incoming req see
system.mem_ctrls.wrQLenPdf::0                       1                       # What write queue length does an incoming req see
system.mem_ctrls.wrQLenPdf::1                       1                       # What write queue length does an incoming req see
system.mem_ctrls.wrQLenPdf::2                       1                       # What write queue length does an incoming req see
system.mem_ctrls.wrQLenPdf::3                       1                       # What write queue length does an incoming req see
system.mem_ctrls.wrQLenPdf::4                       1                       # What write queue length does an incoming req see
system.mem_ctrls.wrQLenPdf::5                       1                       # What write queue length does an incoming req see
system.mem_ctrls.wrQLenPdf::6                       1                       # What write queue length does an incoming req see
system.mem_ctrls.wrQLenPdf::7                       1                       # What write queue length does an incoming req see
system.mem_ctrls.wrQLenPdf::8                       1                       # What write queue length does an incoming req see
system.mem_ctrls.wrQLenPdf::9                       1                       # What write queue length does an incoming req see
system.mem_ctrls.wrQLenPdf::10                      1                       # What write queue length does an incoming req see
system.mem_ctrls.wrQLenPdf::11                      1                       # What write queue length does an incoming req see
system.mem_ctrls.wrQLenPdf::12                      1                       # What write queue length does an incoming req see
system.mem_ctrls.wrQLenPdf::13                      1                       # What write queue length does an incoming req see
system.mem_ctrls.wrQLenPdf::14                      1                       # What write queue length does an incoming req see
system.mem_ctrls.wrQLenPdf::15                      1                       # What write queue length does an incoming req see
system.mem_ctrls.wrQLenPdf::16                      1                       # What write queue length does an incoming req see
system.mem_ctrls.wrQLenPdf::17                      5                       # What write queue length does an incoming req see
system.mem_ctrls.wrQLenPdf::18                      6                       # What write queue length does an incoming req see
system.mem_ctrls.wrQLenPdf::19                      6                       # What write queue length does an incoming req see
system.mem_ctrls.wrQLenPdf::20                      6                       # What write queue length does an incoming req see
system.mem_ctrls.wrQLenPdf::21                      6                       # What write queue length does an incoming req see
system.mem_ctrls.wrQLenPdf::22                      6                       # What write queue length does an incoming req see
system.mem_ctrls.wrQLenPdf::23                      6                       # What write queue length does an incoming req see
system.mem_ctrls.wrQLenPdf::24                      6                       # What write queue length does an incoming req see
system.mem_ctrls.wrQLenPdf::25                      7                       # What write queue length does an incoming req see
system.mem_ctrls.wrQLenPdf::26                      6                       # What write queue length does an incoming req see
system.mem_ctrls.wrQLenPdf::27                      6                       # What write queue length does an incoming req see
system.mem_ctrls.wrQLenPdf::28                      5                       # What write queue length does an incoming req see
system.mem_ctrls.wrQLenPdf::29                      5                       # What write queue length does an incoming req see
system.mem_ctrls.wrQLenPdf::30                      5                       # What write queue length does an incoming req see
system.mem_ctrls.wrQLenPdf::31                      5                       # What write queue length does an incoming req see
system.mem_ctrls.wrQLenPdf::32                      5                       # What write queue length does an incoming req see
system.mem_ctrls.wrQLenPdf::33                      0                       # What write queue length does an incoming req see
system.mem_ctrls.wrQLenPdf::34                      0                       # What write queue length does an incoming req see
system.mem_ctrls.wrQLenPdf::35                      0                       # What write queue length does an incoming req see
system.mem_ctrls.wrQLenPdf::36                      0                       # What write queue length does an incoming req see
system.mem_ctrls.wrQLenPdf::37                      0                       # What write queue length does an incoming req see
system.mem_ctrls.wrQLenPdf::38                      0                       # What write queue length does an incoming req see
system.mem_ctrls.wrQLenPdf::39                      0                       # What write queue length does an incoming req see
system.mem_ctrls.wrQLenPdf::40                      0                       # What write queue length does an incoming req see
system.mem_ctrls.wrQLenPdf::41                      0                       # What write queue length does an incoming req see
system.mem_ctrls.wrQLenPdf::42                      0                       # What write queue length does an incoming req see
system.mem_ctrls.wrQLenPdf::43                      0                       # What write queue length does an incoming req see
system.mem_ctrls.wrQLenPdf::44                      0                       # What write queue length does an incoming req see
system.mem_ctrls.wrQLenPdf::45                      0                       # What write queue length does an incoming req see
system.mem_ctrls.wrQLenPdf::46                      0                       # What write queue length does an incoming req see
system.mem_ctrls.wrQLenPdf::47                      0                       # What write queue length does an incoming req see
system.mem_ctrls.wrQLenPdf::48                      0                       # What write queue length does an incoming req see
system.mem_ctrls.wrQLenPdf::49                      0                       # What write queue length does an incoming req see
system.mem_ctrls.wrQLenPdf::50                      0                       # What write queue length does an incoming req see
system.mem_ctrls.wrQLenPdf::51                      0                       # What write queue length does an incoming req see
system.mem_ctrls.wrQLenPdf::52                      0                       # What write queue length does an incoming req see
system.mem_ctrls.wrQLenPdf::53                      0                       # What write queue length does an incoming req see
system.mem_ctrls.wrQLenPdf::54                      0                       # What write queue length does an incoming req see
system.mem_ctrls.wrQLenPdf::55                      0                       # What write queue length does an incoming req see
system.mem_ctrls.wrQLenPdf::56                      0                       # What write queue length does an incoming req see
system.mem_ctrls.wrQLenPdf::57                      0                       # What write queue length does an incoming req see
system.mem_ctrls.wrQLenPdf::58                      0                       # What write queue length does an incoming req see
system.mem_ctrls.wrQLenPdf::59                      0                       # What write queue length does an incoming req see
system.mem_ctrls.wrQLenPdf::60                      0                       # What write queue length does an incoming req see
system.mem_ctrls.wrQLenPdf::61                      0                       # What write queue length does an incoming req see
system.mem_ctrls.wrQLenPdf::62                      0                       # What write queue length does an incoming req see
system.mem_ctrls.wrQLenPdf::63                      0                       # What write queue length does an incoming req see
system.mem_ctrls.rdPerTurnAround::samples            5                       # Reads before turning the bus around for writes
system.mem_ctrls.rdPerTurnAround::mean     108.800000                       # Reads before turning the bus around for writes
system.mem_ctrls.rdPerTurnAround::gmean     62.522410                       # Reads before turning the bus around for writes
system.mem_ctrls.rdPerTurnAround::stdev    146.487883                       # Reads before turning the bus around for writes
system.mem_ctrls.rdPerTurnAround::24-31             2     40.00%     40.00% # Reads before turning the bus around for writes
system.mem_ctrls.rdPerTurnAround::56-63             2     40.00%     80.00% # Reads before turning the bus around for writes
system.mem_ctrls.rdPerTurnAround::368-375            1     20.00%    100.00% # Reads before turning the bus around for writes
system.mem_ctrls.rdPerTurnAround::total             5                       # Reads before turning the bus around for writes
system.mem_ctrls.wrPerTurnAround::samples            5                       # Writes before turning the bus around for reads
system.mem_ctrls.wrPerTurnAround::mean             16                       # Writes before turning the bus around for reads
system.mem_ctrls.wrPerTurnAround::gmean     16.000000                       # Writes before turning the bus around for reads
system.mem_ctrls.wrPerTurnAround::16                5    100.00%    100.00% # Writes before turning the bus around for reads
system.mem_ctrls.wrPerTurnAround::total             5                       # Writes before turning the bus around for reads
system.mem_ctrls.bytesReadWrQ                  288704                       # Total number of bytes read from write queue
system.mem_ctrls.bytesReadSys                  326464                       # Total read bytes from the system interface side
system.mem_ctrls.bytesWrittenSys               294080                       # Total written bytes from the system interface side
system.mem_ctrls.avgRdBWSys                    789.35                       # Average system read bandwidth in MiByte/s
system.mem_ctrls.avgWrBWSys                    711.05                       # Average system write bandwidth in MiByte/s
system.mem_ctrls.totGap                     413499500                       # Total gap between requests
system.mem_ctrls.avgGap                      42646.40                       # Average gap between requests
system.mem_ctrls.requestorReadBytes::.cpu.inst        26560                       # Per-requestor bytes read from memory
system.mem_ctrls.requestorReadBytes::.cpu.data        11200                       # Per-requestor bytes read from memory
system.mem_ctrls.requestorWriteBytes::.writebacks         5120                       # Per-requestor bytes write to memory
system.mem_ctrls.requestorReadRate::.cpu.inst 64218652.907368950546                       # Per-requestor bytes read from memory rate (Bytes/sec)
system.mem_ctrls.requestorReadRate::.cpu.data 27080154.840456783772                       # Per-requestor bytes read from memory rate (Bytes/sec)
system.mem_ctrls.requestorWriteRate::.writebacks 12379499.355637388304                       # Per-requestor bytes write to memory rate (Bytes/sec)
system.mem_ctrls.requestorReadAccesses::.cpu.inst         4926                       # Per-requestor read serviced memory accesses
system.mem_ctrls.requestorReadAccesses::.cpu.data          175                       # Per-requestor read serviced memory accesses
system.mem_ctrls.requestorWriteAccesses::.writebacks         4595                       # Per-requestor write serviced memory accesses
system.mem_ctrls.requestorReadTotalLat::.cpu.inst     22404360                       # Per-requestor read total memory access latency
system.mem_ctrls.requestorReadTotalLat::.cpu.data     10424720                       # Per-requestor read total memory access latency
system.mem_ctrls.requestorWriteTotalLat::.writebacks   6379978220                       # Per-requestor write total memory access latency
system.mem_ctrls.requestorReadAvgLat::.cpu.inst      4548.19                       # Per-requestor read average memory access latency
system.mem_ctrls.requestorReadAvgLat::.cpu.data     59569.83                       # Per-requestor read average memory access latency
system.mem_ctrls.requestorWriteAvgLat::.writebacks   1388460.98                       # Per-requestor write average memory access latency
system.mem_ctrls.dram.bytes_read::.cpu.inst       315264                       # Number of bytes read from this memory
system.mem_ctrls.dram.bytes_read::.cpu.data        11200                       # Number of bytes read from this memory
system.mem_ctrls.dram.bytes_read::total        326464                       # Number of bytes read from this memory
system.mem_ctrls.dram.bytes_inst_read::.cpu.inst       315264                       # Number of instructions bytes read from this memory
system.mem_ctrls.dram.bytes_inst_read::total       315264                       # Number of instructions bytes read from this memory
system.mem_ctrls.dram.num_reads::.cpu.inst         4926                       # Number of read requests responded to by this memory
system.mem_ctrls.dram.num_reads::.cpu.data          175                       # Number of read requests responded to by this memory
system.mem_ctrls.dram.num_reads::total           5101                       # Number of read requests responded to by this memory
system.mem_ctrls.dram.bw_read::.cpu.inst    762267673                       # Total read bandwidth from this memory (bytes/s)
system.mem_ctrls.dram.bw_read::.cpu.data     27080155                       # Total read bandwidth from this memory (bytes/s)
system.mem_ctrls.dram.bw_read::total        789347828                       # Total read bandwidth from this memory (bytes/s)
system.mem_ctrls.dram.bw_inst_read::.cpu.inst    762267673                       # Instruction read bandwidth from this memory (bytes/s)
system.mem_ctrls.dram.bw_inst_read::total    762267673                       # Instruction read bandwidth from this memory (bytes/s)
system.mem_ctrls.dram.bw_total::.cpu.inst    762267673                       # Total bandwidth to/from this memory (bytes/s)
system.mem_ctrls.dram.bw_total::.cpu.data     27080155                       # Total bandwidth to/from this memory (bytes/s)
system.mem_ctrls.dram.bw_total::total       789347828                       # Total bandwidth to/from this memory (bytes/s)
system.mem_ctrls.dram.readBursts                  590                       # Number of DRAM read bursts
system.mem_ctrls.dram.writeBursts                  80                       # Number of DRAM write bursts
system.mem_ctrls.dram.perBankRdBursts::0          118                       # Per bank write bursts
system.mem_ctrls.dram.perBankRdBursts::1           52                       # Per bank write bursts
system.mem_ctrls.dram.perBankRdBursts::2           70                       # Per bank write bursts
system.mem_ctrls.dram.perBankRdBursts::3           59                       # Per bank write bursts
system.mem_ctrls.dram.perBankRdBursts::4           96                       # Per bank write bursts
system.mem_ctrls.dram.perBankRdBursts::5           21                       # Per bank write bursts
system.mem_ctrls.dram.perBankRdBursts::6           62                       # Per bank write bursts
system.mem_ctrls.dram.perBankRdBursts::7          112                       # Per bank write bursts
system.mem_ctrls.dram.perBankWrBursts::0           34                       # Per bank write bursts
system.mem_ctrls.dram.perBankWrBursts::1            3                       # Per bank write bursts
system.mem_ctrls.dram.perBankWrBursts::2            3                       # Per bank write bursts
system.mem_ctrls.dram.perBankWrBursts::3            6                       # Per bank write bursts
system.mem_ctrls.dram.perBankWrBursts::4           11                       # Per bank write bursts
system.mem_ctrls.dram.perBankWrBursts::5            0                       # Per bank write bursts
system.mem_ctrls.dram.perBankWrBursts::6            0                       # Per bank write bursts
system.mem_ctrls.dram.perBankWrBursts::7           23                       # Per bank write bursts
system.mem_ctrls.dram.totQLat                15660080                       # Total ticks spent queuing
system.mem_ctrls.dram.totBusLat               3433800                       # Total ticks spent in databus transfers
system.mem_ctrls.dram.totMemAccLat           32829080                       # Total ticks spent from burst creation until serviced by the DRAM
system.mem_ctrls.dram.avgQLat                26542.51                       # Average queueing delay per DRAM burst
system.mem_ctrls.dram.avgBusLat               5820.00                       # Average bus latency per DRAM burst
system.mem_ctrls.dram.avgMemAccLat           55642.51                       # Average memory access latency per DRAM burst
system.mem_ctrls.dram.readRowHits                   1                       # Number of row buffer hits during reads
system.mem_ctrls.dram.writeRowHits                 58                       # Number of row buffer hits during writes
system.mem_ctrls.dram.readRowHitRate             0.17                       # Row buffer hit rate for reads
system.mem_ctrls.dram.writeRowHitRate           72.50                       # Row buffer hit rate for writes
system.mem_ctrls.dram.bytesPerActivate::samples          611                       # Bytes accessed per row activation
system.mem_ctrls.dram.bytesPerActivate::mean    70.180033                       # Bytes accessed per row activation
system.mem_ctrls.dram.bytesPerActivate::gmean    66.170759                       # Bytes accessed per row activation
system.mem_ctrls.dram.bytesPerActivate::stdev    50.599945                       # Bytes accessed per row activation
system.mem_ctrls.dram.bytesPerActivate::64-127          598     97.87%     97.87% # Bytes accessed per row activation
system.mem_ctrls.dram.bytesPerActivate::128-191            2      0.33%     98.20% # Bytes accessed per row activation
system.mem_ctrls.dram.bytesPerActivate::192-255            1      0.16%     98.36% # Bytes accessed per row activation
system.mem_ctrls.dram.bytesPerActivate::256-319            3      0.49%     98.85% # Bytes accessed per row activation
system.mem_ctrls.dram.bytesPerActivate::320-383            3      0.49%     99.35% # Bytes accessed per row activation
system.mem_ctrls.dram.bytesPerActivate::448-511            1      0.16%     99.51% # Bytes accessed per row activation
system.mem_ctrls.dram.bytesPerActivate::512-575            1      0.16%     99.67% # Bytes accessed per row activation
system.mem_ctrls.dram.bytesPerActivate::704-767            1      0.16%     99.84% # Bytes accessed per row activation
system.mem_ctrls.dram.bytesPerActivate::768-831            1      0.16%    100.00% # Bytes accessed per row activation
system.mem_ctrls.dram.bytesPerActivate::total          611                       # Bytes accessed per row activation
system.mem_ctrls.dram.bytesRead                 37760                       # Total number of bytes read from DRAM
system.mem_ctrls.dram.bytesWritten               5120                       # Total number of bytes written to DRAM
system.mem_ctrls.dram.avgRdBW               91.298808                       # Average DRAM read bandwidth in MiBytes/s
system.mem_ctrls.dram.avgWrBW               12.379499                       # Average DRAM write bandwidth in MiBytes/s
system.mem_ctrls.dram.peakBW                 10996.00                       # Theoretical peak bandwidth in MiByte/s
system.mem_ctrls.dram.busUtil                    0.94                       # Data bus utilization in percentage
system.mem_ctrls.dram.busUtilRead                0.83                       # Data bus utilization in percentage for reads
system.mem_ctrls.dram.busUtilWrite               0.11                       # Data bus utilization in percentage for writes
system.mem_ctrls.dram.pageHitRate                8.81                       # Row buffer hit rate, read and write combined
system.mem_ctrls.dram.power_state.pwrStateResidencyTicks::UNDEFINED    413587000                       # Cumulative time (in ticks) in various power states
system.mem_ctrls.dram.rank0.actEnergy               0                       # Energy for activate commands per rank (pJ)
system.mem_ctrls.dram.rank0.preEnergy               0                       # Energy for precharge commands per rank (pJ)
system.mem_ctrls.dram.rank0.readEnergy              0                       # Energy for read commands per rank (pJ)
system.mem_ctrls.dram.rank0.writeEnergy             0                       # Energy for write commands per rank (pJ)
system.mem_ctrls.dram.rank0.refreshEnergy            0                       # Energy for refresh commands per rank (pJ)
system.mem_ctrls.dram.rank0.actBackEnergy            0                       # Energy for active background per rank (pJ)
system.mem_ctrls.dram.rank0.preBackEnergy            0                       # Energy for precharge background per rank (pJ)
system.mem_ctrls.dram.rank0.actPowerDownEnergy            0                       # Energy for active power-down per rank (pJ)
system.mem_ctrls.dram.rank0.prePowerDownEnergy            0                       # Energy for precharge power-down per rank (pJ)
system.mem_ctrls.dram.rank0.selfRefreshEnergy            0                       # Energy for self refresh per rank (pJ)
system.mem_ctrls.dram.rank0.totalEnergy             0                       # Total energy per rank (pJ)
system.mem_ctrls.dram.rank0.averagePower            0                       # Core power per rank (mW)
system.mem_ctrls.dram.rank0.totalIdleTime            0                       # Total Idle time Per DRAM Rank
system.mem_ctrls.dram.rank0.pwrStateTime::IDLE    357576700                       # Time in different power states
system.mem_ctrls.dram.rank0.pwrStateTime::REF     22260000                       # Time in different power states
system.mem_ctrls.dram.rank0.pwrStateTime::SREF            0                       # Time in different power states
system.mem_ctrls.dram.rank0.pwrStateTime::PRE_PDN            0                       # Time in different power states
system.mem_ctrls.dram.rank0.pwrStateTime::ACT     33750300                       # Time in different power states
system.mem_ctrls.dram.rank0.pwrStateTime::ACT_PDN            0                       # Time in different power states
system.mem_ctrls.power_state.pwrStateResidencyTicks::UNDEFINED    413587000                       # Cumulative time (in ticks) in various power states
system.membus.trans_dist::ReadResp               5034                       # Transaction distribution
system.membus.trans_dist::WritebackClean         4601                       # Transaction distribution
system.membus.trans_dist::ReadExReq                67                       # Transaction distribution
system.membus.trans_dist::ReadExResp               67                       # Transaction distribution
system.membus.trans_dist::ReadCleanReq           4926                       # Transaction distribution
system.membus.trans_dist::ReadSharedReq           108                       # Transaction distribution
system.membus.pkt_count_system.cpu.icache.mem_side_port::system.mem_ctrls.port        14453                       # Packet count per connected requestor and responder (bytes)
system.membus.pkt_count_system.cpu.dcache.mem_side_port::system.mem_ctrls.port          350                       # Packet count per connected requestor and responder (bytes)
system.membus.pkt_count::total                  14803                       # Packet count per connected requestor and responder (bytes)
system.membus.pkt_size_system.cpu.icache.mem_side_port::system.mem_ctrls.port       609728                       # Cumulative packet size per connected requestor and responder (bytes)
system.membus.pkt_size_system.cpu.dcache.mem_side_port::system.mem_ctrls.port        11200                       # Cumulative packet size per connected requestor and responder (bytes)
system.membus.pkt_size::total                  620928                       # Cumulative packet size per connected requestor and responder (bytes)
system.membus.snoops                                0                       # Total snoops (count)
system.membus.snoopTraffic                          0                       # Total snoop traffic (bytes)
system.membus.snoop_fanout::samples              5101                       # Request fanout histogram
system.membus.snoop_fanout::mean             0.005097                       # Request fanout histogram
system.membus.snoop_fanout::stdev            0.071218                       # Request fanout histogram
system.membus.snoop_fanout::underflows              0      0.00%      0.00% # Request fanout histogram
system.membus.snoop_fanout::0                    5075     99.49%     99.49% # Request fanout histogram
system.membus.snoop_fanout::1                      26      0.51%    100.00% # Request fanout histogram
system.membus.snoop_fanout::2                       0      0.00%    100.00% # Request fanout histogram
system.membus.snoop_fanout::overflows               0      0.00%    100.00% # Request fanout histogram
system.membus.snoop_fanout::min_value               0                       # Request fanout histogram
system.membus.snoop_fanout::max_value               1                       # Request fanout histogram
system.membus.snoop_fanout::total                5101                       # Request fanout histogram
system.membus.power_state.pwrStateResidencyTicks::UNDEFINED    413587000                       # Cumulative time (in ticks) in various power states
system.membus.reqLayer0.occupancy            28972500                       # Layer occupancy (ticks)
system.membus.reqLayer0.utilization               7.0                       # Layer utilization (%)
system.membus.respLayer1.occupancy           24994640                       # Layer occupancy (ticks)
system.membus.respLayer1.utilization              6.0                       # Layer utilization (%)
system.membus.respLayer2.occupancy            1016280                       # Layer occupancy (ticks)
system.membus.respLayer2.utilization              0.2                       # Layer utilization (%)
system.voltage_domain.voltage                       1                       # Voltage in Volts

---------- End Simulation Statistics   ----------
