
---------- Begin Simulation Statistics ----------
final_tick                               115551901000                       # Number of ticks from beginning of simulation (restored from checkpoints and never reset)
host_inst_rate                                 398229                       # Simulator instruction rate (inst/s)
host_mem_usage                                 661120                       # Number of bytes of host memory used
host_op_rate                                   435789                       # Simulator op (including micro ops) rate (op/s)
host_seconds                                   251.11                       # Real time elapsed on the host
host_tick_rate                              460160939                       # Simulator tick rate (ticks/s)
sim_freq                                 1000000000000                       # Frequency of simulated ticks
sim_insts                                   100000000                       # Number of instructions simulated
sim_ops                                     109431833                       # Number of ops (including micro ops) simulated
sim_seconds                                  0.115552                       # Number of seconds simulated
sim_ticks                                115551901000                       # Number of ticks simulated
system.cpu.committedInsts                   100000000                       # Number of instructions committed
system.cpu.committedOps                     109431833                       # Number of ops (including micro ops) committed
system.cpu.cpi                               1.155519                       # CPI: cycles per instruction
system.cpu.discardedOps                        729873                       # Number of ops (including micro ops) which were discarded before commit
system.cpu.idleCycles                         4659518                       # Total number of cycles that the object has spent stopped
system.cpu.ipc                               0.865412                       # IPC: instructions per cycle
system.cpu.numCycles                        115551901                       # number of cpu cycles simulated
system.cpu.numFetchSuspends                         0                       # Number of times Execute suspended instruction fetching
system.cpu.numWorkItemsCompleted                    0                       # number of work items this cpu completed
system.cpu.numWorkItemsStarted                      0                       # number of work items this cpu started
system.cpu.op_class_0::No_OpClass                   0      0.00%      0.00% # Class of committed instruction
system.cpu.op_class_0::IntAlu                72954902     66.67%     66.67% # Class of committed instruction
system.cpu.op_class_0::IntMult                 568365      0.52%     67.19% # Class of committed instruction
system.cpu.op_class_0::IntDiv                       0      0.00%     67.19% # Class of committed instruction
system.cpu.op_class_0::FloatAdd                     0      0.00%     67.19% # Class of committed instruction
system.cpu.op_class_0::FloatCmp                     0      0.00%     67.19% # Class of committed instruction
system.cpu.op_class_0::FloatCvt                     0      0.00%     67.19% # Class of committed instruction
system.cpu.op_class_0::FloatMult                    0      0.00%     67.19% # Class of committed instruction
system.cpu.op_class_0::FloatMultAcc                 0      0.00%     67.19% # Class of committed instruction
system.cpu.op_class_0::FloatDiv                     0      0.00%     67.19% # Class of committed instruction
system.cpu.op_class_0::FloatMisc                    0      0.00%     67.19% # Class of committed instruction
system.cpu.op_class_0::FloatSqrt                    0      0.00%     67.19% # Class of committed instruction
system.cpu.op_class_0::SimdAdd                 241244      0.22%     67.41% # Class of committed instruction
system.cpu.op_class_0::SimdAddAcc                   0      0.00%     67.41% # Class of committed instruction
system.cpu.op_class_0::SimdAlu                 154714      0.14%     67.55% # Class of committed instruction
system.cpu.op_class_0::SimdCmp                 120622      0.11%     67.66% # Class of committed instruction
system.cpu.op_class_0::SimdCvt                      0      0.00%     67.66% # Class of committed instruction
system.cpu.op_class_0::SimdMisc                 44543      0.04%     67.70% # Class of committed instruction
system.cpu.op_class_0::SimdMult                     0      0.00%     67.70% # Class of committed instruction
system.cpu.op_class_0::SimdMultAcc                  0      0.00%     67.70% # Class of committed instruction
system.cpu.op_class_0::SimdShift                    0      0.00%     67.70% # Class of committed instruction
system.cpu.op_class_0::SimdShiftAcc                 0      0.00%     67.70% # Class of committed instruction
system.cpu.op_class_0::SimdDiv                      0      0.00%     67.70% # Class of committed instruction
system.cpu.op_class_0::SimdSqrt                     0      0.00%     67.70% # Class of committed instruction
system.cpu.op_class_0::SimdFloatAdd                 0      0.00%     67.70% # Class of committed instruction
system.cpu.op_class_0::SimdFloatAlu                 0      0.00%     67.70% # Class of committed instruction
system.cpu.op_class_0::SimdFloatCmp                 0      0.00%     67.70% # Class of committed instruction
system.cpu.op_class_0::SimdFloatCvt                 0      0.00%     67.70% # Class of committed instruction
system.cpu.op_class_0::SimdFloatDiv                 0      0.00%     67.70% # Class of committed instruction
system.cpu.op_class_0::SimdFloatMisc           166460      0.15%     67.85% # Class of committed instruction
system.cpu.op_class_0::SimdFloatMult                0      0.00%     67.85% # Class of committed instruction
system.cpu.op_class_0::SimdFloatMultAcc             0      0.00%     67.85% # Class of committed instruction
system.cpu.op_class_0::SimdFloatSqrt                0      0.00%     67.85% # Class of committed instruction
system.cpu.op_class_0::SimdReduceAdd                0      0.00%     67.85% # Class of committed instruction
system.cpu.op_class_0::SimdReduceAlu                0      0.00%     67.85% # Class of committed instruction
system.cpu.op_class_0::SimdReduceCmp                0      0.00%     67.85% # Class of committed instruction
system.cpu.op_class_0::SimdFloatReduceAdd            0      0.00%     67.85% # Class of committed instruction
system.cpu.op_class_0::SimdFloatReduceCmp            0      0.00%     67.85% # Class of committed instruction
system.cpu.op_class_0::SimdAes                      0      0.00%     67.85% # Class of committed instruction
system.cpu.op_class_0::SimdAesMix                   0      0.00%     67.85% # Class of committed instruction
system.cpu.op_class_0::SimdSha1Hash                 0      0.00%     67.85% # Class of committed instruction
system.cpu.op_class_0::SimdSha1Hash2                0      0.00%     67.85% # Class of committed instruction
system.cpu.op_class_0::SimdSha256Hash               0      0.00%     67.85% # Class of committed instruction
system.cpu.op_class_0::SimdSha256Hash2              0      0.00%     67.85% # Class of committed instruction
system.cpu.op_class_0::SimdShaSigma2                0      0.00%     67.85% # Class of committed instruction
system.cpu.op_class_0::SimdShaSigma3                0      0.00%     67.85% # Class of committed instruction
system.cpu.op_class_0::SimdPredAlu                  0      0.00%     67.85% # Class of committed instruction
system.cpu.op_class_0::MemRead               20646335     18.87%     86.72% # Class of committed instruction
system.cpu.op_class_0::MemWrite              14534648     13.28%    100.00% # Class of committed instruction
system.cpu.op_class_0::FloatMemRead                 0      0.00%    100.00% # Class of committed instruction
system.cpu.op_class_0::FloatMemWrite                0      0.00%    100.00% # Class of committed instruction
system.cpu.op_class_0::IprAccess                    0      0.00%    100.00% # Class of committed instruction
system.cpu.op_class_0::InstPrefetch                 0      0.00%    100.00% # Class of committed instruction
system.cpu.op_class_0::total                109431833                       # Class of committed instruction
system.cpu.tickCycles                       110892383                       # Number of cycles that the object actually ticked
system.cpu.workload.numSyscalls                    86                       # Number of system calls
system.membus.snoop_filter.hit_multi_requests            0                       # Number of requests hitting in the snoop filter with multiple (>1) holders of the requested data.
system.membus.snoop_filter.hit_multi_snoops            0                       # Number of snoops hitting in the snoop filter with multiple (>1) holders of the requested data.
system.membus.snoop_filter.hit_single_requests        37875                       # Number of requests hitting in the snoop filter with a single holder of the requested data.
system.membus.snoop_filter.hit_single_snoops            0                       # Number of snoops hitting in the snoop filter with a single holder of the requested data.
system.membus.snoop_filter.tot_requests         84367                       # Total number of requests made to the snoop filter.
system.membus.snoop_filter.tot_snoops               0                       # Total number of snoops made to the snoop filter.
system.tol2bus.snoop_filter.hit_multi_requests         2522                       # Number of requests hitting in the snoop filter with multiple (>1) holders of the requested data.
system.tol2bus.snoop_filter.hit_multi_snoops            9                       # Number of snoops hitting in the snoop filter with multiple (>1) holders of the requested data.
system.tol2bus.snoop_filter.hit_single_requests       125278                       # Number of requests hitting in the snoop filter with a single holder of the requested data.
system.tol2bus.snoop_filter.hit_single_snoops          589                       # Number of snoops hitting in the snoop filter with a single holder of the requested data.
system.tol2bus.snoop_filter.tot_requests       251503                       # Total number of requests made to the snoop filter.
system.tol2bus.snoop_filter.tot_snoops            598                       # Total number of snoops made to the snoop filter.
system.clk_domain.clock                          1000                       # Clock period in ticks
system.cpu.branchPred.lookups                20634764                       # Number of BP lookups
system.cpu.branchPred.condPredicted          16527286                       # Number of conditional branches predicted
system.cpu.branchPred.condIncorrect            153919                       # Number of conditional branches incorrect
system.cpu.branchPred.BTBLookups              8837523                       # Number of BTB lookups
system.cpu.branchPred.BTBHits                 8746893                       # Number of BTB hits
system.cpu.branchPred.BTBHitPct             98.974486                       # BTB Hit Percentage
system.cpu.branchPred.RASUsed                 1050592                       # Number of times the RAS was used to get a target.
system.cpu.branchPred.RASIncorrect                312                       # Number of incorrect RAS predictions.
system.cpu.branchPred.indirectLookups          433995                       # Number of indirect predictor lookups.
system.cpu.branchPred.indirectHits             300036                       # Number of indirect target hits.
system.cpu.branchPred.indirectMisses           133959                       # Number of indirect misses.
system.cpu.branchPred.indirectMispredicted         1205                       # Number of mispredicted indirect branches.
system.cpu.dcache.demand_hits::.cpu.data     35580161                       # number of demand (read+write) hits
system.cpu.dcache.demand_hits::total         35580161                       # number of demand (read+write) hits
system.cpu.dcache.overall_hits::.cpu.data     35583444                       # number of overall hits
system.cpu.dcache.overall_hits::total        35583444                       # number of overall hits
system.cpu.dcache.demand_misses::.cpu.data       156984                       # number of demand (read+write) misses
system.cpu.dcache.demand_misses::total         156984                       # number of demand (read+write) misses
system.cpu.dcache.overall_misses::.cpu.data       157074                       # number of overall misses
system.cpu.dcache.overall_misses::total        157074                       # number of overall misses
system.cpu.dcache.demand_miss_latency::.cpu.data   8866286000                       # number of demand (read+write) miss cycles
system.cpu.dcache.demand_miss_latency::total   8866286000                       # number of demand (read+write) miss cycles
system.cpu.dcache.overall_miss_latency::.cpu.data   8866286000                       # number of overall miss cycles
system.cpu.dcache.overall_miss_latency::total   8866286000                       # number of overall miss cycles
system.cpu.dcache.demand_accesses::.cpu.data     35737145                       # number of demand (read+write) accesses
system.cpu.dcache.demand_accesses::total     35737145                       # number of demand (read+write) accesses
system.cpu.dcache.overall_accesses::.cpu.data     35740518                       # number of overall (read+write) accesses
system.cpu.dcache.overall_accesses::total     35740518                       # number of overall (read+write) accesses
system.cpu.dcache.demand_miss_rate::.cpu.data     0.004393                       # miss rate for demand accesses
system.cpu.dcache.demand_miss_rate::total     0.004393                       # miss rate for demand accesses
system.cpu.dcache.overall_miss_rate::.cpu.data     0.004395                       # miss rate for overall accesses
system.cpu.dcache.overall_miss_rate::total     0.004395                       # miss rate for overall accesses
system.cpu.dcache.demand_avg_miss_latency::.cpu.data 56478.915049                       # average overall miss latency
system.cpu.dcache.demand_avg_miss_latency::total 56478.915049                       # average overall miss latency
system.cpu.dcache.overall_avg_miss_latency::.cpu.data 56446.553854                       # average overall miss latency
system.cpu.dcache.overall_avg_miss_latency::total 56446.553854                       # average overall miss latency
system.cpu.dcache.blocked_cycles::no_mshrs            0                       # number of cycles access was blocked
system.cpu.dcache.blocked_cycles::no_targets            0                       # number of cycles access was blocked
system.cpu.dcache.blocked::no_mshrs                 0                       # number of cycles access was blocked
system.cpu.dcache.blocked::no_targets               0                       # number of cycles access was blocked
system.cpu.dcache.avg_blocked_cycles::no_mshrs          nan                       # average number of cycles each access was blocked
system.cpu.dcache.avg_blocked_cycles::no_targets          nan                       # average number of cycles each access was blocked
system.cpu.dcache.writebacks::.writebacks        72338                       # number of writebacks
system.cpu.dcache.writebacks::total             72338                       # number of writebacks
system.cpu.dcache.demand_mshr_hits::.cpu.data        32041                       # number of demand (read+write) MSHR hits
system.cpu.dcache.demand_mshr_hits::total        32041                       # number of demand (read+write) MSHR hits
system.cpu.dcache.overall_mshr_hits::.cpu.data        32041                       # number of overall MSHR hits
system.cpu.dcache.overall_mshr_hits::total        32041                       # number of overall MSHR hits
system.cpu.dcache.demand_mshr_misses::.cpu.data       124943                       # number of demand (read+write) MSHR misses
system.cpu.dcache.demand_mshr_misses::total       124943                       # number of demand (read+write) MSHR misses
system.cpu.dcache.overall_mshr_misses::.cpu.data       125027                       # number of overall MSHR misses
system.cpu.dcache.overall_mshr_misses::total       125027                       # number of overall MSHR misses
system.cpu.dcache.demand_mshr_miss_latency::.cpu.data   6976527000                       # number of demand (read+write) MSHR miss cycles
system.cpu.dcache.demand_mshr_miss_latency::total   6976527000                       # number of demand (read+write) MSHR miss cycles
system.cpu.dcache.overall_mshr_miss_latency::.cpu.data   6980217000                       # number of overall MSHR miss cycles
system.cpu.dcache.overall_mshr_miss_latency::total   6980217000                       # number of overall MSHR miss cycles
system.cpu.dcache.demand_mshr_miss_rate::.cpu.data     0.003496                       # mshr miss rate for demand accesses
system.cpu.dcache.demand_mshr_miss_rate::total     0.003496                       # mshr miss rate for demand accesses
system.cpu.dcache.overall_mshr_miss_rate::.cpu.data     0.003498                       # mshr miss rate for overall accesses
system.cpu.dcache.overall_mshr_miss_rate::total     0.003498                       # mshr miss rate for overall accesses
system.cpu.dcache.demand_avg_mshr_miss_latency::.cpu.data 55837.677981                       # average overall mshr miss latency
system.cpu.dcache.demand_avg_mshr_miss_latency::total 55837.677981                       # average overall mshr miss latency
system.cpu.dcache.overall_avg_mshr_miss_latency::.cpu.data 55829.676790                       # average overall mshr miss latency
system.cpu.dcache.overall_avg_mshr_miss_latency::total 55829.676790                       # average overall mshr miss latency
system.cpu.dcache.replacements                 124516                       # number of replacements
system.cpu.dcache.ReadReq_hits::.cpu.data     21396541                       # number of ReadReq hits
system.cpu.dcache.ReadReq_hits::total        21396541                       # number of ReadReq hits
system.cpu.dcache.ReadReq_misses::.cpu.data        86009                       # number of ReadReq misses
system.cpu.dcache.ReadReq_misses::total         86009                       # number of ReadReq misses
system.cpu.dcache.ReadReq_miss_latency::.cpu.data   2951702000                       # number of ReadReq miss cycles
system.cpu.dcache.ReadReq_miss_latency::total   2951702000                       # number of ReadReq miss cycles
system.cpu.dcache.ReadReq_accesses::.cpu.data     21482550                       # number of ReadReq accesses(hits+misses)
system.cpu.dcache.ReadReq_accesses::total     21482550                       # number of ReadReq accesses(hits+misses)
system.cpu.dcache.ReadReq_miss_rate::.cpu.data     0.004004                       # miss rate for ReadReq accesses
system.cpu.dcache.ReadReq_miss_rate::total     0.004004                       # miss rate for ReadReq accesses
system.cpu.dcache.ReadReq_avg_miss_latency::.cpu.data 34318.524806                       # average ReadReq miss latency
system.cpu.dcache.ReadReq_avg_miss_latency::total 34318.524806                       # average ReadReq miss latency
system.cpu.dcache.ReadReq_mshr_hits::.cpu.data         8863                       # number of ReadReq MSHR hits
system.cpu.dcache.ReadReq_mshr_hits::total         8863                       # number of ReadReq MSHR hits
system.cpu.dcache.ReadReq_mshr_misses::.cpu.data        77146                       # number of ReadReq MSHR misses
system.cpu.dcache.ReadReq_mshr_misses::total        77146                       # number of ReadReq MSHR misses
system.cpu.dcache.ReadReq_mshr_miss_latency::.cpu.data   2529436000                       # number of ReadReq MSHR miss cycles
system.cpu.dcache.ReadReq_mshr_miss_latency::total   2529436000                       # number of ReadReq MSHR miss cycles
system.cpu.dcache.ReadReq_mshr_miss_rate::.cpu.data     0.003591                       # mshr miss rate for ReadReq accesses
system.cpu.dcache.ReadReq_mshr_miss_rate::total     0.003591                       # mshr miss rate for ReadReq accesses
system.cpu.dcache.ReadReq_avg_mshr_miss_latency::.cpu.data 32787.649392                       # average ReadReq mshr miss latency
system.cpu.dcache.ReadReq_avg_mshr_miss_latency::total 32787.649392                       # average ReadReq mshr miss latency
system.cpu.dcache.WriteReq_hits::.cpu.data     14183620                       # number of WriteReq hits
system.cpu.dcache.WriteReq_hits::total       14183620                       # number of WriteReq hits
system.cpu.dcache.WriteReq_misses::.cpu.data        70975                       # number of WriteReq misses
system.cpu.dcache.WriteReq_misses::total        70975                       # number of WriteReq misses
system.cpu.dcache.WriteReq_miss_latency::.cpu.data   5914584000                       # number of WriteReq miss cycles
system.cpu.dcache.WriteReq_miss_latency::total   5914584000                       # number of WriteReq miss cycles
system.cpu.dcache.WriteReq_accesses::.cpu.data     14254595                       # number of WriteReq accesses(hits+misses)
system.cpu.dcache.WriteReq_accesses::total     14254595                       # number of WriteReq accesses(hits+misses)
system.cpu.dcache.WriteReq_miss_rate::.cpu.data     0.004979                       # miss rate for WriteReq accesses
system.cpu.dcache.WriteReq_miss_rate::total     0.004979                       # miss rate for WriteReq accesses
system.cpu.dcache.WriteReq_avg_miss_latency::.cpu.data 83333.342726                       # average WriteReq miss latency
system.cpu.dcache.WriteReq_avg_miss_latency::total 83333.342726                       # average WriteReq miss latency
system.cpu.dcache.WriteReq_mshr_hits::.cpu.data        23178                       # number of WriteReq MSHR hits
system.cpu.dcache.WriteReq_mshr_hits::total        23178                       # number of WriteReq MSHR hits
system.cpu.dcache.WriteReq_mshr_misses::.cpu.data        47797                       # number of WriteReq MSHR misses
system.cpu.dcache.WriteReq_mshr_misses::total        47797                       # number of WriteReq MSHR misses
system.cpu.dcache.WriteReq_mshr_miss_latency::.cpu.data   4447091000                       # number of WriteReq MSHR miss cycles
system.cpu.dcache.WriteReq_mshr_miss_latency::total   4447091000                       # number of WriteReq MSHR miss cycles
system.cpu.dcache.WriteReq_mshr_miss_rate::.cpu.data     0.003353                       # mshr miss rate for WriteReq accesses
system.cpu.dcache.WriteReq_mshr_miss_rate::total     0.003353                       # mshr miss rate for WriteReq accesses
system.cpu.dcache.WriteReq_avg_mshr_miss_latency::.cpu.data 93041.215976                       # average WriteReq mshr miss latency
system.cpu.dcache.WriteReq_avg_mshr_miss_latency::total 93041.215976                       # average WriteReq mshr miss latency
system.cpu.dcache.SoftPFReq_hits::.cpu.data         3283                       # number of SoftPFReq hits
system.cpu.dcache.SoftPFReq_hits::total          3283                       # number of SoftPFReq hits
system.cpu.dcache.SoftPFReq_misses::.cpu.data           90                       # number of SoftPFReq misses
system.cpu.dcache.SoftPFReq_misses::total           90                       # number of SoftPFReq misses
system.cpu.dcache.SoftPFReq_accesses::.cpu.data         3373                       # number of SoftPFReq accesses(hits+misses)
system.cpu.dcache.SoftPFReq_accesses::total         3373                       # number of SoftPFReq accesses(hits+misses)
system.cpu.dcache.SoftPFReq_miss_rate::.cpu.data     0.026682                       # miss rate for SoftPFReq accesses
system.cpu.dcache.SoftPFReq_miss_rate::total     0.026682                       # miss rate for SoftPFReq accesses
system.cpu.dcache.SoftPFReq_mshr_misses::.cpu.data           84                       # number of SoftPFReq MSHR misses
system.cpu.dcache.SoftPFReq_mshr_misses::total           84                       # number of SoftPFReq MSHR misses
system.cpu.dcache.SoftPFReq_mshr_miss_latency::.cpu.data      3690000                       # number of SoftPFReq MSHR miss cycles
system.cpu.dcache.SoftPFReq_mshr_miss_latency::total      3690000                       # number of SoftPFReq MSHR miss cycles
system.cpu.dcache.SoftPFReq_mshr_miss_rate::.cpu.data     0.024904                       # mshr miss rate for SoftPFReq accesses
system.cpu.dcache.SoftPFReq_mshr_miss_rate::total     0.024904                       # mshr miss rate for SoftPFReq accesses
system.cpu.dcache.SoftPFReq_avg_mshr_miss_latency::.cpu.data 43928.571429                       # average SoftPFReq mshr miss latency
system.cpu.dcache.SoftPFReq_avg_mshr_miss_latency::total 43928.571429                       # average SoftPFReq mshr miss latency
system.cpu.dcache.LoadLockedReq_hits::.cpu.data        89079                       # number of LoadLockedReq hits
system.cpu.dcache.LoadLockedReq_hits::total        89079                       # number of LoadLockedReq hits
system.cpu.dcache.LoadLockedReq_misses::.cpu.data            2                       # number of LoadLockedReq misses
system.cpu.dcache.LoadLockedReq_misses::total            2                       # number of LoadLockedReq misses
system.cpu.dcache.LoadLockedReq_miss_latency::.cpu.data        80000                       # number of LoadLockedReq miss cycles
system.cpu.dcache.LoadLockedReq_miss_latency::total        80000                       # number of LoadLockedReq miss cycles
system.cpu.dcache.LoadLockedReq_accesses::.cpu.data        89081                       # number of LoadLockedReq accesses(hits+misses)
system.cpu.dcache.LoadLockedReq_accesses::total        89081                       # number of LoadLockedReq accesses(hits+misses)
system.cpu.dcache.LoadLockedReq_miss_rate::.cpu.data     0.000022                       # miss rate for LoadLockedReq accesses
system.cpu.dcache.LoadLockedReq_miss_rate::total     0.000022                       # miss rate for LoadLockedReq accesses
system.cpu.dcache.LoadLockedReq_avg_miss_latency::.cpu.data        40000                       # average LoadLockedReq miss latency
system.cpu.dcache.LoadLockedReq_avg_miss_latency::total        40000                       # average LoadLockedReq miss latency
system.cpu.dcache.LoadLockedReq_mshr_misses::.cpu.data            2                       # number of LoadLockedReq MSHR misses
system.cpu.dcache.LoadLockedReq_mshr_misses::total            2                       # number of LoadLockedReq MSHR misses
system.cpu.dcache.LoadLockedReq_mshr_miss_latency::.cpu.data        76000                       # number of LoadLockedReq MSHR miss cycles
system.cpu.dcache.LoadLockedReq_mshr_miss_latency::total        76000                       # number of LoadLockedReq MSHR miss cycles
system.cpu.dcache.LoadLockedReq_mshr_miss_rate::.cpu.data     0.000022                       # mshr miss rate for LoadLockedReq accesses
system.cpu.dcache.LoadLockedReq_mshr_miss_rate::total     0.000022                       # mshr miss rate for LoadLockedReq accesses
system.cpu.dcache.LoadLockedReq_avg_mshr_miss_latency::.cpu.data        38000                       # average LoadLockedReq mshr miss latency
system.cpu.dcache.LoadLockedReq_avg_mshr_miss_latency::total        38000                       # average LoadLockedReq mshr miss latency
system.cpu.dcache.StoreCondReq_hits::.cpu.data        89080                       # number of StoreCondReq hits
system.cpu.dcache.StoreCondReq_hits::total        89080                       # number of StoreCondReq hits
system.cpu.dcache.StoreCondReq_accesses::.cpu.data        89080                       # number of StoreCondReq accesses(hits+misses)
system.cpu.dcache.StoreCondReq_accesses::total        89080                       # number of StoreCondReq accesses(hits+misses)
system.cpu.dcache.power_state.pwrStateResidencyTicks::UNDEFINED 115551901000                       # Cumulative time (in ticks) in various power states
system.cpu.dcache.tags.tagsinuse           511.083736                       # Cycle average of tags in use
system.cpu.dcache.tags.total_refs            35886631                       # Total number of references to valid blocks.
system.cpu.dcache.tags.sampled_refs            125028                       # Sample count of references to valid blocks.
system.cpu.dcache.tags.avg_refs            287.028754                       # Average number of references to valid blocks.
system.cpu.dcache.tags.warmup_cycle            240000                       # Cycle when the warmup percentage was hit.
system.cpu.dcache.tags.occ_blocks::.cpu.data   511.083736                       # Average occupied blocks per requestor
system.cpu.dcache.tags.occ_percent::.cpu.data     0.998210                       # Average percentage of cache occupancy
system.cpu.dcache.tags.occ_percent::total     0.998210                       # Average percentage of cache occupancy
system.cpu.dcache.tags.occ_task_id_blocks::1024          512                       # Occupied blocks per task id
system.cpu.dcache.tags.age_task_id_blocks_1024::0            3                       # Occupied blocks per task id
system.cpu.dcache.tags.age_task_id_blocks_1024::1           32                       # Occupied blocks per task id
system.cpu.dcache.tags.age_task_id_blocks_1024::2          250                       # Occupied blocks per task id
system.cpu.dcache.tags.age_task_id_blocks_1024::3          227                       # Occupied blocks per task id
system.cpu.dcache.tags.occ_task_id_percent::1024            1                       # Percentage of cache occupancy per task id
system.cpu.dcache.tags.tag_accesses          36043707                       # Number of tag accesses
system.cpu.dcache.tags.data_accesses         36043707                       # Number of data accesses
system.cpu.dcache.tags.power_state.pwrStateResidencyTicks::UNDEFINED 115551901000                       # Cumulative time (in ticks) in various power states
system.cpu.dtb.instHits                             0                       # ITB inst hits
system.cpu.dtb.instMisses                           0                       # ITB inst misses
system.cpu.dtb.readHits                             0                       # DTB read hits
system.cpu.dtb.readMisses                           0                       # DTB read misses
system.cpu.dtb.writeHits                            0                       # DTB write hits
system.cpu.dtb.writeMisses                          0                       # DTB write misses
system.cpu.dtb.inserts                              0                       # Number of times an entry is inserted into the TLB
system.cpu.dtb.flushTlb                             0                       # Number of times complete TLB was flushed
system.cpu.dtb.flushTlbMva                          0                       # Number of times TLB was flushed by MVA
system.cpu.dtb.flushTlbMvaAsid                      0                       # Number of times TLB was flushed by MVA & ASID
system.cpu.dtb.flushTlbAsid                         0                       # Number of times TLB was flushed by ASID
system.cpu.dtb.flushedEntries                       0                       # Number of entries that have been flushed from TLB
system.cpu.dtb.alignFaults                          0                       # Number of TLB faults due to alignment restrictions
system.cpu.dtb.prefetchFaults                       0                       # Number of TLB faults due to prefetch
system.cpu.dtb.domainFaults                         0                       # Number of TLB faults due to domain restrictions
system.cpu.dtb.permsFaults                          0                       # Number of TLB faults due to permissions restrictions
system.cpu.dtb.readAccesses                         0                       # DTB read accesses
system.cpu.dtb.writeAccesses                        0                       # DTB write accesses
system.cpu.dtb.instAccesses                         0                       # ITB inst accesses
system.cpu.dtb.hits                                 0                       # Total TLB (inst and data) hits
system.cpu.dtb.misses                               0                       # Total TLB (inst and data) misses
system.cpu.dtb.accesses                             0                       # Total TLB (inst and data) accesses
system.cpu.dtb.stage2_mmu.stage2_tlb.instHits            0                       # ITB inst hits
system.cpu.dtb.stage2_mmu.stage2_tlb.instMisses            0                       # ITB inst misses
system.cpu.dtb.stage2_mmu.stage2_tlb.readHits            0                       # DTB read hits
system.cpu.dtb.stage2_mmu.stage2_tlb.readMisses            0                       # DTB read misses
system.cpu.dtb.stage2_mmu.stage2_tlb.writeHits            0                       # DTB write hits
system.cpu.dtb.stage2_mmu.stage2_tlb.writeMisses            0                       # DTB write misses
system.cpu.dtb.stage2_mmu.stage2_tlb.inserts            0                       # Number of times an entry is inserted into the TLB
system.cpu.dtb.stage2_mmu.stage2_tlb.flushTlb            0                       # Number of times complete TLB was flushed
system.cpu.dtb.stage2_mmu.stage2_tlb.flushTlbMva            0                       # Number of times TLB was flushed by MVA
system.cpu.dtb.stage2_mmu.stage2_tlb.flushTlbMvaAsid            0                       # Number of times TLB was flushed by MVA & ASID
system.cpu.dtb.stage2_mmu.stage2_tlb.flushTlbAsid            0                       # Number of times TLB was flushed by ASID
system.cpu.dtb.stage2_mmu.stage2_tlb.flushedEntries            0                       # Number of entries that have been flushed from TLB
system.cpu.dtb.stage2_mmu.stage2_tlb.alignFaults            0                       # Number of TLB faults due to alignment restrictions
system.cpu.dtb.stage2_mmu.stage2_tlb.prefetchFaults            0                       # Number of TLB faults due to prefetch
system.cpu.dtb.stage2_mmu.stage2_tlb.domainFaults            0                       # Number of TLB faults due to domain restrictions
system.cpu.dtb.stage2_mmu.stage2_tlb.permsFaults            0                       # Number of TLB faults due to permissions restrictions
system.cpu.dtb.stage2_mmu.stage2_tlb.readAccesses            0                       # DTB read accesses
system.cpu.dtb.stage2_mmu.stage2_tlb.writeAccesses            0                       # DTB write accesses
system.cpu.dtb.stage2_mmu.stage2_tlb.instAccesses            0                       # ITB inst accesses
system.cpu.dtb.stage2_mmu.stage2_tlb.hits            0                       # Total TLB (inst and data) hits
system.cpu.dtb.stage2_mmu.stage2_tlb.misses            0                       # Total TLB (inst and data) misses
system.cpu.dtb.stage2_mmu.stage2_tlb.accesses            0                       # Total TLB (inst and data) accesses
system.cpu.dtb.stage2_mmu.stage2_tlb.walker.walks            0                       # Table walker walks requested
system.cpu.dtb.stage2_mmu.stage2_tlb.walker.requestOrigin_Requested::Data            0                       # Table walker requests started/completed, data/inst
system.cpu.dtb.stage2_mmu.stage2_tlb.walker.requestOrigin_Requested::Inst            0                       # Table walker requests started/completed, data/inst
system.cpu.dtb.stage2_mmu.stage2_tlb.walker.requestOrigin_Requested::total            0                       # Table walker requests started/completed, data/inst
system.cpu.dtb.stage2_mmu.stage2_tlb.walker.requestOrigin_Completed::Data            0                       # Table walker requests started/completed, data/inst
system.cpu.dtb.stage2_mmu.stage2_tlb.walker.requestOrigin_Completed::Inst            0                       # Table walker requests started/completed, data/inst
system.cpu.dtb.stage2_mmu.stage2_tlb.walker.requestOrigin_Completed::total            0                       # Table walker requests started/completed, data/inst
system.cpu.dtb.stage2_mmu.stage2_tlb.walker.requestOrigin::total            0                       # Table walker requests started/completed, data/inst
system.cpu.dtb.stage2_mmu.stage2_tlb.walker.power_state.pwrStateResidencyTicks::UNDEFINED 115551901000                       # Cumulative time (in ticks) in various power states
system.cpu.dtb.walker.walks                         0                       # Table walker walks requested
system.cpu.dtb.walker.requestOrigin_Requested::Data            0                       # Table walker requests started/completed, data/inst
system.cpu.dtb.walker.requestOrigin_Requested::Inst            0                       # Table walker requests started/completed, data/inst
system.cpu.dtb.walker.requestOrigin_Requested::total            0                       # Table walker requests started/completed, data/inst
system.cpu.dtb.walker.requestOrigin_Completed::Data            0                       # Table walker requests started/completed, data/inst
system.cpu.dtb.walker.requestOrigin_Completed::Inst            0                       # Table walker requests started/completed, data/inst
system.cpu.dtb.walker.requestOrigin_Completed::total            0                       # Table walker requests started/completed, data/inst
system.cpu.dtb.walker.requestOrigin::total            0                       # Table walker requests started/completed, data/inst
system.cpu.dtb.walker.power_state.pwrStateResidencyTicks::UNDEFINED 115551901000                       # Cumulative time (in ticks) in various power states
system.cpu.fetch2.intInstructions            49922367                       # Number of integer instructions successfully decoded
system.cpu.fetch2.fpInstructions                    0                       # Number of floating point instructions successfully decoded
system.cpu.fetch2.vecInstructions                   0                       # Number of SIMD instructions successfully decoded
system.cpu.fetch2.loadInstructions           17208396                       # Number of memory load instructions successfully decoded
system.cpu.fetch2.storeInstructions          10039472                       # Number of memory store instructions successfully decoded
system.cpu.fetch2.amoInstructions                   0                       # Number of memory atomic instructions successfully decoded
system.cpu.icache.demand_hits::.cpu.inst     28668123                       # number of demand (read+write) hits
system.cpu.icache.demand_hits::total         28668123                       # number of demand (read+write) hits
system.cpu.icache.overall_hits::.cpu.inst     28668123                       # number of overall hits
system.cpu.icache.overall_hits::total        28668123                       # number of overall hits
system.cpu.icache.demand_misses::.cpu.inst         1200                       # number of demand (read+write) misses
system.cpu.icache.demand_misses::total           1200                       # number of demand (read+write) misses
system.cpu.icache.overall_misses::.cpu.inst         1200                       # number of overall misses
system.cpu.icache.overall_misses::total          1200                       # number of overall misses
system.cpu.icache.demand_miss_latency::.cpu.inst     70131000                       # number of demand (read+write) miss cycles
system.cpu.icache.demand_miss_latency::total     70131000                       # number of demand (read+write) miss cycles
system.cpu.icache.overall_miss_latency::.cpu.inst     70131000                       # number of overall miss cycles
system.cpu.icache.overall_miss_latency::total     70131000                       # number of overall miss cycles
system.cpu.icache.demand_accesses::.cpu.inst     28669323                       # number of demand (read+write) accesses
system.cpu.icache.demand_accesses::total     28669323                       # number of demand (read+write) accesses
system.cpu.icache.overall_accesses::.cpu.inst     28669323                       # number of overall (read+write) accesses
system.cpu.icache.overall_accesses::total     28669323                       # number of overall (read+write) accesses
system.cpu.icache.demand_miss_rate::.cpu.inst     0.000042                       # miss rate for demand accesses
system.cpu.icache.demand_miss_rate::total     0.000042                       # miss rate for demand accesses
system.cpu.icache.overall_miss_rate::.cpu.inst     0.000042                       # miss rate for overall accesses
system.cpu.icache.overall_miss_rate::total     0.000042                       # miss rate for overall accesses
system.cpu.icache.demand_avg_miss_latency::.cpu.inst 58442.500000                       # average overall miss latency
system.cpu.icache.demand_avg_miss_latency::total 58442.500000                       # average overall miss latency
system.cpu.icache.overall_avg_miss_latency::.cpu.inst 58442.500000                       # average overall miss latency
system.cpu.icache.overall_avg_miss_latency::total 58442.500000                       # average overall miss latency
system.cpu.icache.blocked_cycles::no_mshrs            0                       # number of cycles access was blocked
system.cpu.icache.blocked_cycles::no_targets            0                       # number of cycles access was blocked
system.cpu.icache.blocked::no_mshrs                 0                       # number of cycles access was blocked
system.cpu.icache.blocked::no_targets               0                       # number of cycles access was blocked
system.cpu.icache.avg_blocked_cycles::no_mshrs          nan                       # average number of cycles each access was blocked
system.cpu.icache.avg_blocked_cycles::no_targets          nan                       # average number of cycles each access was blocked
system.cpu.icache.writebacks::.writebacks          758                       # number of writebacks
system.cpu.icache.writebacks::total               758                       # number of writebacks
system.cpu.icache.demand_mshr_misses::.cpu.inst         1200                       # number of demand (read+write) MSHR misses
system.cpu.icache.demand_mshr_misses::total         1200                       # number of demand (read+write) MSHR misses
system.cpu.icache.overall_mshr_misses::.cpu.inst         1200                       # number of overall MSHR misses
system.cpu.icache.overall_mshr_misses::total         1200                       # number of overall MSHR misses
system.cpu.icache.demand_mshr_miss_latency::.cpu.inst     67731000                       # number of demand (read+write) MSHR miss cycles
system.cpu.icache.demand_mshr_miss_latency::total     67731000                       # number of demand (read+write) MSHR miss cycles
system.cpu.icache.overall_mshr_miss_latency::.cpu.inst     67731000                       # number of overall MSHR miss cycles
system.cpu.icache.overall_mshr_miss_latency::total     67731000                       # number of overall MSHR miss cycles
system.cpu.icache.demand_mshr_miss_rate::.cpu.inst     0.000042                       # mshr miss rate for demand accesses
system.cpu.icache.demand_mshr_miss_rate::total     0.000042                       # mshr miss rate for demand accesses
system.cpu.icache.overall_mshr_miss_rate::.cpu.inst     0.000042                       # mshr miss rate for overall accesses
system.cpu.icache.overall_mshr_miss_rate::total     0.000042                       # mshr miss rate for overall accesses
system.cpu.icache.demand_avg_mshr_miss_latency::.cpu.inst 56442.500000                       # average overall mshr miss latency
system.cpu.icache.demand_avg_mshr_miss_latency::total 56442.500000                       # average overall mshr miss latency
system.cpu.icache.overall_avg_mshr_miss_latency::.cpu.inst 56442.500000                       # average overall mshr miss latency
system.cpu.icache.overall_avg_mshr_miss_latency::total 56442.500000                       # average overall mshr miss latency
system.cpu.icache.replacements                    758                       # number of replacements
system.cpu.icache.ReadReq_hits::.cpu.inst     28668123                       # number of ReadReq hits
system.cpu.icache.ReadReq_hits::total        28668123                       # number of ReadReq hits
system.cpu.icache.ReadReq_misses::.cpu.inst         1200                       # number of ReadReq misses
system.cpu.icache.ReadReq_misses::total          1200                       # number of ReadReq misses
system.cpu.icache.ReadReq_miss_latency::.cpu.inst     70131000                       # number of ReadReq miss cycles
system.cpu.icache.ReadReq_miss_latency::total     70131000                       # number of ReadReq miss cycles
system.cpu.icache.ReadReq_accesses::.cpu.inst     28669323                       # number of ReadReq accesses(hits+misses)
system.cpu.icache.ReadReq_accesses::total     28669323                       # number of ReadReq accesses(hits+misses)
system.cpu.icache.ReadReq_miss_rate::.cpu.inst     0.000042                       # miss rate for ReadReq accesses
system.cpu.icache.ReadReq_miss_rate::total     0.000042                       # miss rate for ReadReq accesses
system.cpu.icache.ReadReq_avg_miss_latency::.cpu.inst 58442.500000                       # average ReadReq miss latency
system.cpu.icache.ReadReq_avg_miss_latency::total 58442.500000                       # average ReadReq miss latency
system.cpu.icache.ReadReq_mshr_misses::.cpu.inst         1200                       # number of ReadReq MSHR misses
system.cpu.icache.ReadReq_mshr_misses::total         1200                       # number of ReadReq MSHR misses
system.cpu.icache.ReadReq_mshr_miss_latency::.cpu.inst     67731000                       # number of ReadReq MSHR miss cycles
system.cpu.icache.ReadReq_mshr_miss_latency::total     67731000                       # number of ReadReq MSHR miss cycles
system.cpu.icache.ReadReq_mshr_miss_rate::.cpu.inst     0.000042                       # mshr miss rate for ReadReq accesses
system.cpu.icache.ReadReq_mshr_miss_rate::total     0.000042                       # mshr miss rate for ReadReq accesses
system.cpu.icache.ReadReq_avg_mshr_miss_latency::.cpu.inst 56442.500000                       # average ReadReq mshr miss latency
system.cpu.icache.ReadReq_avg_mshr_miss_latency::total 56442.500000                       # average ReadReq mshr miss latency
system.cpu.icache.power_state.pwrStateResidencyTicks::UNDEFINED 115551901000                       # Cumulative time (in ticks) in various power states
system.cpu.icache.tags.tagsinuse           441.579767                       # Cycle average of tags in use
system.cpu.icache.tags.total_refs            28669323                       # Total number of references to valid blocks.
system.cpu.icache.tags.sampled_refs              1200                       # Sample count of references to valid blocks.
system.cpu.icache.tags.avg_refs          23891.102500                       # Average number of references to valid blocks.
system.cpu.icache.tags.warmup_cycle            108000                       # Cycle when the warmup percentage was hit.
system.cpu.icache.tags.occ_blocks::.cpu.inst   441.579767                       # Average occupied blocks per requestor
system.cpu.icache.tags.occ_percent::.cpu.inst     0.431230                       # Average percentage of cache occupancy
system.cpu.icache.tags.occ_percent::total     0.431230                       # Average percentage of cache occupancy
system.cpu.icache.tags.occ_task_id_blocks::1024          442                       # Occupied blocks per task id
system.cpu.icache.tags.age_task_id_blocks_1024::3            5                       # Occupied blocks per task id
system.cpu.icache.tags.age_task_id_blocks_1024::4          437                       # Occupied blocks per task id
system.cpu.icache.tags.occ_task_id_percent::1024     0.431641                       # Percentage of cache occupancy per task id
system.cpu.icache.tags.tag_accesses          28670523                       # Number of tag accesses
system.cpu.icache.tags.data_accesses         28670523                       # Number of data accesses
system.cpu.icache.tags.power_state.pwrStateResidencyTicks::UNDEFINED 115551901000                       # Cumulative time (in ticks) in various power states
system.cpu.itb.instHits                             0                       # ITB inst hits
system.cpu.itb.instMisses                           0                       # ITB inst misses
system.cpu.itb.readHits                             0                       # DTB read hits
system.cpu.itb.readMisses                           0                       # DTB read misses
system.cpu.itb.writeHits                            0                       # DTB write hits
system.cpu.itb.writeMisses                          0                       # DTB write misses
system.cpu.itb.inserts                              0                       # Number of times an entry is inserted into the TLB
system.cpu.itb.flushTlb                             0                       # Number of times complete TLB was flushed
system.cpu.itb.flushTlbMva                          0                       # Number of times TLB was flushed by MVA
system.cpu.itb.flushTlbMvaAsid                      0                       # Number of times TLB was flushed by MVA & ASID
system.cpu.itb.flushTlbAsid                         0                       # Number of times TLB was flushed by ASID
system.cpu.itb.flushedEntries                       0                       # Number of entries that have been flushed from TLB
system.cpu.itb.alignFaults                          0                       # Number of TLB faults due to alignment restrictions
system.cpu.itb.prefetchFaults                       0                       # Number of TLB faults due to prefetch
system.cpu.itb.domainFaults                         0                       # Number of TLB faults due to domain restrictions
system.cpu.itb.permsFaults                          0                       # Number of TLB faults due to permissions restrictions
system.cpu.itb.readAccesses                         0                       # DTB read accesses
system.cpu.itb.writeAccesses                        0                       # DTB write accesses
system.cpu.itb.instAccesses                         0                       # ITB inst accesses
system.cpu.itb.hits                                 0                       # Total TLB (inst and data) hits
system.cpu.itb.misses                               0                       # Total TLB (inst and data) misses
system.cpu.itb.accesses                             0                       # Total TLB (inst and data) accesses
system.cpu.itb.stage2_mmu.stage2_tlb.instHits            0                       # ITB inst hits
system.cpu.itb.stage2_mmu.stage2_tlb.instMisses            0                       # ITB inst misses
system.cpu.itb.stage2_mmu.stage2_tlb.readHits            0                       # DTB read hits
system.cpu.itb.stage2_mmu.stage2_tlb.readMisses            0                       # DTB read misses
system.cpu.itb.stage2_mmu.stage2_tlb.writeHits            0                       # DTB write hits
system.cpu.itb.stage2_mmu.stage2_tlb.writeMisses            0                       # DTB write misses
system.cpu.itb.stage2_mmu.stage2_tlb.inserts            0                       # Number of times an entry is inserted into the TLB
system.cpu.itb.stage2_mmu.stage2_tlb.flushTlb            0                       # Number of times complete TLB was flushed
system.cpu.itb.stage2_mmu.stage2_tlb.flushTlbMva            0                       # Number of times TLB was flushed by MVA
system.cpu.itb.stage2_mmu.stage2_tlb.flushTlbMvaAsid            0                       # Number of times TLB was flushed by MVA & ASID
system.cpu.itb.stage2_mmu.stage2_tlb.flushTlbAsid            0                       # Number of times TLB was flushed by ASID
system.cpu.itb.stage2_mmu.stage2_tlb.flushedEntries            0                       # Number of entries that have been flushed from TLB
system.cpu.itb.stage2_mmu.stage2_tlb.alignFaults            0                       # Number of TLB faults due to alignment restrictions
system.cpu.itb.stage2_mmu.stage2_tlb.prefetchFaults            0                       # Number of TLB faults due to prefetch
system.cpu.itb.stage2_mmu.stage2_tlb.domainFaults            0                       # Number of TLB faults due to domain restrictions
system.cpu.itb.stage2_mmu.stage2_tlb.permsFaults            0                       # Number of TLB faults due to permissions restrictions
system.cpu.itb.stage2_mmu.stage2_tlb.readAccesses            0                       # DTB read accesses
system.cpu.itb.stage2_mmu.stage2_tlb.writeAccesses            0                       # DTB write accesses
system.cpu.itb.stage2_mmu.stage2_tlb.instAccesses            0                       # ITB inst accesses
system.cpu.itb.stage2_mmu.stage2_tlb.hits            0                       # Total TLB (inst and data) hits
system.cpu.itb.stage2_mmu.stage2_tlb.misses            0                       # Total TLB (inst and data) misses
system.cpu.itb.stage2_mmu.stage2_tlb.accesses            0                       # Total TLB (inst and data) accesses
system.cpu.itb.stage2_mmu.stage2_tlb.walker.walks            0                       # Table walker walks requested
system.cpu.itb.stage2_mmu.stage2_tlb.walker.requestOrigin_Requested::Data            0                       # Table walker requests started/completed, data/inst
system.cpu.itb.stage2_mmu.stage2_tlb.walker.requestOrigin_Requested::Inst            0                       # Table walker requests started/completed, data/inst
system.cpu.itb.stage2_mmu.stage2_tlb.walker.requestOrigin_Requested::total            0                       # Table walker requests started/completed, data/inst
system.cpu.itb.stage2_mmu.stage2_tlb.walker.requestOrigin_Completed::Data            0                       # Table walker requests started/completed, data/inst
system.cpu.itb.stage2_mmu.stage2_tlb.walker.requestOrigin_Completed::Inst            0                       # Table walker requests started/completed, data/inst
system.cpu.itb.stage2_mmu.stage2_tlb.walker.requestOrigin_Completed::total            0                       # Table walker requests started/completed, data/inst
system.cpu.itb.stage2_mmu.stage2_tlb.walker.requestOrigin::total            0                       # Table walker requests started/completed, data/inst
system.cpu.itb.stage2_mmu.stage2_tlb.walker.power_state.pwrStateResidencyTicks::UNDEFINED 115551901000                       # Cumulative time (in ticks) in various power states
system.cpu.itb.walker.walks                         0                       # Table walker walks requested
system.cpu.itb.walker.requestOrigin_Requested::Data            0                       # Table walker requests started/completed, data/inst
system.cpu.itb.walker.requestOrigin_Requested::Inst            0                       # Table walker requests started/completed, data/inst
system.cpu.itb.walker.requestOrigin_Requested::total            0                       # Table walker requests started/completed, data/inst
system.cpu.itb.walker.requestOrigin_Completed::Data            0                       # Table walker requests started/completed, data/inst
system.cpu.itb.walker.requestOrigin_Completed::Inst            0                       # Table walker requests started/completed, data/inst
system.cpu.itb.walker.requestOrigin_Completed::total            0                       # Table walker requests started/completed, data/inst
system.cpu.itb.walker.requestOrigin::total            0                       # Table walker requests started/completed, data/inst
system.cpu.itb.walker.power_state.pwrStateResidencyTicks::UNDEFINED 115551901000                       # Cumulative time (in ticks) in various power states
system.cpu.power_state.pwrStateResidencyTicks::ON 115551901000                       # Cumulative time (in ticks) in various power states
system.cpu.thread_0.numInsts                100000000                       # Number of Instructions committed
system.cpu.thread_0.numOps                  109431833                       # Number of Ops committed
system.cpu.thread_0.numMemRefs                      0                       # Number of Memory References
system.cpu_clk_domain.clock                      1000                       # Clock period in ticks
system.cpu_voltage_domain.voltage                   1                       # Voltage in Volts
system.l2.demand_hits::.cpu.inst                  689                       # number of demand (read+write) hits
system.l2.demand_hits::.cpu.data                79033                       # number of demand (read+write) hits
system.l2.demand_hits::total                    79722                       # number of demand (read+write) hits
system.l2.overall_hits::.cpu.inst                 689                       # number of overall hits
system.l2.overall_hits::.cpu.data               79033                       # number of overall hits
system.l2.overall_hits::total                   79722                       # number of overall hits
system.l2.demand_misses::.cpu.inst                511                       # number of demand (read+write) misses
system.l2.demand_misses::.cpu.data              45996                       # number of demand (read+write) misses
system.l2.demand_misses::total                  46507                       # number of demand (read+write) misses
system.l2.overall_misses::.cpu.inst               511                       # number of overall misses
system.l2.overall_misses::.cpu.data             45996                       # number of overall misses
system.l2.overall_misses::total                 46507                       # number of overall misses
system.l2.demand_miss_latency::.cpu.inst     49645000                       # number of demand (read+write) miss cycles
system.l2.demand_miss_latency::.cpu.data   4869576000                       # number of demand (read+write) miss cycles
system.l2.demand_miss_latency::total       4919221000                       # number of demand (read+write) miss cycles
system.l2.overall_miss_latency::.cpu.inst     49645000                       # number of overall miss cycles
system.l2.overall_miss_latency::.cpu.data   4869576000                       # number of overall miss cycles
system.l2.overall_miss_latency::total      4919221000                       # number of overall miss cycles
system.l2.demand_accesses::.cpu.inst             1200                       # number of demand (read+write) accesses
system.l2.demand_accesses::.cpu.data           125029                       # number of demand (read+write) accesses
system.l2.demand_accesses::total               126229                       # number of demand (read+write) accesses
system.l2.overall_accesses::.cpu.inst            1200                       # number of overall (read+write) accesses
system.l2.overall_accesses::.cpu.data          125029                       # number of overall (read+write) accesses
system.l2.overall_accesses::total              126229                       # number of overall (read+write) accesses
system.l2.demand_miss_rate::.cpu.inst        0.425833                       # miss rate for demand accesses
system.l2.demand_miss_rate::.cpu.data        0.367883                       # miss rate for demand accesses
system.l2.demand_miss_rate::total            0.368434                       # miss rate for demand accesses
system.l2.overall_miss_rate::.cpu.inst       0.425833                       # miss rate for overall accesses
system.l2.overall_miss_rate::.cpu.data       0.367883                       # miss rate for overall accesses
system.l2.overall_miss_rate::total           0.368434                       # miss rate for overall accesses
system.l2.demand_avg_miss_latency::.cpu.inst 97152.641879                       # average overall miss latency
system.l2.demand_avg_miss_latency::.cpu.data 105869.553874                       # average overall miss latency
system.l2.demand_avg_miss_latency::total 105773.775991                       # average overall miss latency
system.l2.overall_avg_miss_latency::.cpu.inst 97152.641879                       # average overall miss latency
system.l2.overall_avg_miss_latency::.cpu.data 105869.553874                       # average overall miss latency
system.l2.overall_avg_miss_latency::total 105773.775991                       # average overall miss latency
system.l2.blocked_cycles::no_mshrs                  0                       # number of cycles access was blocked
system.l2.blocked_cycles::no_targets                0                       # number of cycles access was blocked
system.l2.blocked::no_mshrs                         0                       # number of cycles access was blocked
system.l2.blocked::no_targets                       0                       # number of cycles access was blocked
system.l2.avg_blocked_cycles::no_mshrs            nan                       # average number of cycles each access was blocked
system.l2.avg_blocked_cycles::no_targets          nan                       # average number of cycles each access was blocked
system.l2.writebacks::.writebacks               37663                       # number of writebacks
system.l2.writebacks::total                     37663                       # number of writebacks
system.l2.demand_mshr_hits::.cpu.inst               1                       # number of demand (read+write) MSHR hits
system.l2.demand_mshr_hits::.cpu.data               5                       # number of demand (read+write) MSHR hits
system.l2.demand_mshr_hits::total                   6                       # number of demand (read+write) MSHR hits
system.l2.overall_mshr_hits::.cpu.inst              1                       # number of overall MSHR hits
system.l2.overall_mshr_hits::.cpu.data              5                       # number of overall MSHR hits
system.l2.overall_mshr_hits::total                  6                       # number of overall MSHR hits
system.l2.demand_mshr_misses::.cpu.inst           510                       # number of demand (read+write) MSHR misses
system.l2.demand_mshr_misses::.cpu.data         45991                       # number of demand (read+write) MSHR misses
system.l2.demand_mshr_misses::total             46501                       # number of demand (read+write) MSHR misses
system.l2.overall_mshr_misses::.cpu.inst          510                       # number of overall MSHR misses
system.l2.overall_mshr_misses::.cpu.data        45991                       # number of overall MSHR misses
system.l2.overall_mshr_misses::total            46501                       # number of overall MSHR misses
system.l2.demand_mshr_miss_latency::.cpu.inst     39365000                       # number of demand (read+write) MSHR miss cycles
system.l2.demand_mshr_miss_latency::.cpu.data   3949348000                       # number of demand (read+write) MSHR miss cycles
system.l2.demand_mshr_miss_latency::total   3988713000                       # number of demand (read+write) MSHR miss cycles
system.l2.overall_mshr_miss_latency::.cpu.inst     39365000                       # number of overall MSHR miss cycles
system.l2.overall_mshr_miss_latency::.cpu.data   3949348000                       # number of overall MSHR miss cycles
system.l2.overall_mshr_miss_latency::total   3988713000                       # number of overall MSHR miss cycles
system.l2.demand_mshr_miss_rate::.cpu.inst     0.425000                       # mshr miss rate for demand accesses
system.l2.demand_mshr_miss_rate::.cpu.data     0.367843                       # mshr miss rate for demand accesses
system.l2.demand_mshr_miss_rate::total       0.368386                       # mshr miss rate for demand accesses
system.l2.overall_mshr_miss_rate::.cpu.inst     0.425000                       # mshr miss rate for overall accesses
system.l2.overall_mshr_miss_rate::.cpu.data     0.367843                       # mshr miss rate for overall accesses
system.l2.overall_mshr_miss_rate::total      0.368386                       # mshr miss rate for overall accesses
system.l2.demand_avg_mshr_miss_latency::.cpu.inst 77186.274510                       # average overall mshr miss latency
system.l2.demand_avg_mshr_miss_latency::.cpu.data 85872.192385                       # average overall mshr miss latency
system.l2.demand_avg_mshr_miss_latency::total 85776.929528                       # average overall mshr miss latency
system.l2.overall_avg_mshr_miss_latency::.cpu.inst 77186.274510                       # average overall mshr miss latency
system.l2.overall_avg_mshr_miss_latency::.cpu.data 85872.192385                       # average overall mshr miss latency
system.l2.overall_avg_mshr_miss_latency::total 85776.929528                       # average overall mshr miss latency
system.l2.replacements                          38439                       # number of replacements
system.l2.WritebackDirty_hits::.writebacks        72338                       # number of WritebackDirty hits
system.l2.WritebackDirty_hits::total            72338                       # number of WritebackDirty hits
system.l2.WritebackDirty_accesses::.writebacks        72338                       # number of WritebackDirty accesses(hits+misses)
system.l2.WritebackDirty_accesses::total        72338                       # number of WritebackDirty accesses(hits+misses)
system.l2.WritebackClean_hits::.writebacks          755                       # number of WritebackClean hits
system.l2.WritebackClean_hits::total              755                       # number of WritebackClean hits
system.l2.WritebackClean_accesses::.writebacks          755                       # number of WritebackClean accesses(hits+misses)
system.l2.WritebackClean_accesses::total          755                       # number of WritebackClean accesses(hits+misses)
system.l2.CleanEvict_mshr_misses::.writebacks           26                       # number of CleanEvict MSHR misses
system.l2.CleanEvict_mshr_misses::total            26                       # number of CleanEvict MSHR misses
system.l2.CleanEvict_mshr_miss_rate::.writebacks          inf                       # mshr miss rate for CleanEvict accesses
system.l2.CleanEvict_mshr_miss_rate::total          inf                       # mshr miss rate for CleanEvict accesses
system.l2.ReadExReq_hits::.cpu.data              8985                       # number of ReadExReq hits
system.l2.ReadExReq_hits::total                  8985                       # number of ReadExReq hits
system.l2.ReadExReq_misses::.cpu.data           38812                       # number of ReadExReq misses
system.l2.ReadExReq_misses::total               38812                       # number of ReadExReq misses
system.l2.ReadExReq_miss_latency::.cpu.data   4082003000                       # number of ReadExReq miss cycles
system.l2.ReadExReq_miss_latency::total    4082003000                       # number of ReadExReq miss cycles
system.l2.ReadExReq_accesses::.cpu.data         47797                       # number of ReadExReq accesses(hits+misses)
system.l2.ReadExReq_accesses::total             47797                       # number of ReadExReq accesses(hits+misses)
system.l2.ReadExReq_miss_rate::.cpu.data     0.812017                       # miss rate for ReadExReq accesses
system.l2.ReadExReq_miss_rate::total         0.812017                       # miss rate for ReadExReq accesses
system.l2.ReadExReq_avg_miss_latency::.cpu.data 105173.734927                       # average ReadExReq miss latency
system.l2.ReadExReq_avg_miss_latency::total 105173.734927                       # average ReadExReq miss latency
system.l2.ReadExReq_mshr_misses::.cpu.data        38812                       # number of ReadExReq MSHR misses
system.l2.ReadExReq_mshr_misses::total          38812                       # number of ReadExReq MSHR misses
system.l2.ReadExReq_mshr_miss_latency::.cpu.data   3305763000                       # number of ReadExReq MSHR miss cycles
system.l2.ReadExReq_mshr_miss_latency::total   3305763000                       # number of ReadExReq MSHR miss cycles
system.l2.ReadExReq_mshr_miss_rate::.cpu.data     0.812017                       # mshr miss rate for ReadExReq accesses
system.l2.ReadExReq_mshr_miss_rate::total     0.812017                       # mshr miss rate for ReadExReq accesses
system.l2.ReadExReq_avg_mshr_miss_latency::.cpu.data 85173.734927                       # average ReadExReq mshr miss latency
system.l2.ReadExReq_avg_mshr_miss_latency::total 85173.734927                       # average ReadExReq mshr miss latency
system.l2.ReadCleanReq_hits::.cpu.inst            689                       # number of ReadCleanReq hits
system.l2.ReadCleanReq_hits::total                689                       # number of ReadCleanReq hits
system.l2.ReadCleanReq_misses::.cpu.inst          511                       # number of ReadCleanReq misses
system.l2.ReadCleanReq_misses::total              511                       # number of ReadCleanReq misses
system.l2.ReadCleanReq_miss_latency::.cpu.inst     49645000                       # number of ReadCleanReq miss cycles
system.l2.ReadCleanReq_miss_latency::total     49645000                       # number of ReadCleanReq miss cycles
system.l2.ReadCleanReq_accesses::.cpu.inst         1200                       # number of ReadCleanReq accesses(hits+misses)
system.l2.ReadCleanReq_accesses::total           1200                       # number of ReadCleanReq accesses(hits+misses)
system.l2.ReadCleanReq_miss_rate::.cpu.inst     0.425833                       # miss rate for ReadCleanReq accesses
system.l2.ReadCleanReq_miss_rate::total      0.425833                       # miss rate for ReadCleanReq accesses
system.l2.ReadCleanReq_avg_miss_latency::.cpu.inst 97152.641879                       # average ReadCleanReq miss latency
system.l2.ReadCleanReq_avg_miss_latency::total 97152.641879                       # average ReadCleanReq miss latency
system.l2.ReadCleanReq_mshr_hits::.cpu.inst            1                       # number of ReadCleanReq MSHR hits
system.l2.ReadCleanReq_mshr_hits::total             1                       # number of ReadCleanReq MSHR hits
system.l2.ReadCleanReq_mshr_misses::.cpu.inst          510                       # number of ReadCleanReq MSHR misses
system.l2.ReadCleanReq_mshr_misses::total          510                       # number of ReadCleanReq MSHR misses
system.l2.ReadCleanReq_mshr_miss_latency::.cpu.inst     39365000                       # number of ReadCleanReq MSHR miss cycles
system.l2.ReadCleanReq_mshr_miss_latency::total     39365000                       # number of ReadCleanReq MSHR miss cycles
system.l2.ReadCleanReq_mshr_miss_rate::.cpu.inst     0.425000                       # mshr miss rate for ReadCleanReq accesses
system.l2.ReadCleanReq_mshr_miss_rate::total     0.425000                       # mshr miss rate for ReadCleanReq accesses
system.l2.ReadCleanReq_avg_mshr_miss_latency::.cpu.inst 77186.274510                       # average ReadCleanReq mshr miss latency
system.l2.ReadCleanReq_avg_mshr_miss_latency::total 77186.274510                       # average ReadCleanReq mshr miss latency
system.l2.ReadSharedReq_hits::.cpu.data         70048                       # number of ReadSharedReq hits
system.l2.ReadSharedReq_hits::total             70048                       # number of ReadSharedReq hits
system.l2.ReadSharedReq_misses::.cpu.data         7184                       # number of ReadSharedReq misses
system.l2.ReadSharedReq_misses::total            7184                       # number of ReadSharedReq misses
system.l2.ReadSharedReq_miss_latency::.cpu.data    787573000                       # number of ReadSharedReq miss cycles
system.l2.ReadSharedReq_miss_latency::total    787573000                       # number of ReadSharedReq miss cycles
system.l2.ReadSharedReq_accesses::.cpu.data        77232                       # number of ReadSharedReq accesses(hits+misses)
system.l2.ReadSharedReq_accesses::total         77232                       # number of ReadSharedReq accesses(hits+misses)
system.l2.ReadSharedReq_miss_rate::.cpu.data     0.093018                       # miss rate for ReadSharedReq accesses
system.l2.ReadSharedReq_miss_rate::total     0.093018                       # miss rate for ReadSharedReq accesses
system.l2.ReadSharedReq_avg_miss_latency::.cpu.data 109628.758352                       # average ReadSharedReq miss latency
system.l2.ReadSharedReq_avg_miss_latency::total 109628.758352                       # average ReadSharedReq miss latency
system.l2.ReadSharedReq_mshr_hits::.cpu.data            5                       # number of ReadSharedReq MSHR hits
system.l2.ReadSharedReq_mshr_hits::total            5                       # number of ReadSharedReq MSHR hits
system.l2.ReadSharedReq_mshr_misses::.cpu.data         7179                       # number of ReadSharedReq MSHR misses
system.l2.ReadSharedReq_mshr_misses::total         7179                       # number of ReadSharedReq MSHR misses
system.l2.ReadSharedReq_mshr_miss_latency::.cpu.data    643585000                       # number of ReadSharedReq MSHR miss cycles
system.l2.ReadSharedReq_mshr_miss_latency::total    643585000                       # number of ReadSharedReq MSHR miss cycles
system.l2.ReadSharedReq_mshr_miss_rate::.cpu.data     0.092954                       # mshr miss rate for ReadSharedReq accesses
system.l2.ReadSharedReq_mshr_miss_rate::total     0.092954                       # mshr miss rate for ReadSharedReq accesses
system.l2.ReadSharedReq_avg_mshr_miss_latency::.cpu.data 89648.279705                       # average ReadSharedReq mshr miss latency
system.l2.ReadSharedReq_avg_mshr_miss_latency::total 89648.279705                       # average ReadSharedReq mshr miss latency
system.l2.power_state.pwrStateResidencyTicks::UNDEFINED 115551901000                       # Cumulative time (in ticks) in various power states
system.l2.tags.tagsinuse                  8001.120344                       # Cycle average of tags in use
system.l2.tags.total_refs                      248949                       # Total number of references to valid blocks.
system.l2.tags.sampled_refs                     46631                       # Sample count of references to valid blocks.
system.l2.tags.avg_refs                      5.338702                       # Average number of references to valid blocks.
system.l2.tags.warmup_cycle                     87000                       # Cycle when the warmup percentage was hit.
system.l2.tags.occ_blocks::.writebacks      20.160301                       # Average occupied blocks per requestor
system.l2.tags.occ_blocks::.cpu.inst        30.014622                       # Average occupied blocks per requestor
system.l2.tags.occ_blocks::.cpu.data      7950.945422                       # Average occupied blocks per requestor
system.l2.tags.occ_percent::.writebacks      0.002461                       # Average percentage of cache occupancy
system.l2.tags.occ_percent::.cpu.inst        0.003664                       # Average percentage of cache occupancy
system.l2.tags.occ_percent::.cpu.data        0.970574                       # Average percentage of cache occupancy
system.l2.tags.occ_percent::total            0.976699                       # Average percentage of cache occupancy
system.l2.tags.occ_task_id_blocks::1024          8192                       # Occupied blocks per task id
system.l2.tags.age_task_id_blocks_1024::0            2                       # Occupied blocks per task id
system.l2.tags.age_task_id_blocks_1024::1           17                       # Occupied blocks per task id
system.l2.tags.age_task_id_blocks_1024::2          237                       # Occupied blocks per task id
system.l2.tags.age_task_id_blocks_1024::3         2498                       # Occupied blocks per task id
system.l2.tags.age_task_id_blocks_1024::4         5438                       # Occupied blocks per task id
system.l2.tags.occ_task_id_percent::1024            1                       # Percentage of cache occupancy per task id
system.l2.tags.tag_accesses                    544593                       # Number of tag accesses
system.l2.tags.data_accesses                   544593                       # Number of data accesses
system.l2.tags.power_state.pwrStateResidencyTicks::UNDEFINED 115551901000                       # Cumulative time (in ticks) in various power states
system.mem_ctrls.avgPriority_.writebacks::samples     37662.00                       # Average QoS priority value for accepted requests
system.mem_ctrls.avgPriority_.cpu.inst::samples       510.00                       # Average QoS priority value for accepted requests
system.mem_ctrls.avgPriority_.cpu.data::samples     45971.00                       # Average QoS priority value for accepted requests
system.mem_ctrls.priorityMinLatency      0.000000018750                       # per QoS priority minimum request to response latency (s)
system.mem_ctrls.priorityMaxLatency      0.003701804500                       # per QoS priority maximum request to response latency (s)
system.mem_ctrls.numReadWriteTurnArounds         2108                       # Number of turnarounds from READ to WRITE
system.mem_ctrls.numWriteReadTurnArounds         2108                       # Number of turnarounds from WRITE to READ
system.mem_ctrls.numStayReadState              159746                       # Number of times bus staying in READ state
system.mem_ctrls.numStayWriteState              35574                       # Number of times bus staying in WRITE state
system.mem_ctrls.readReqs                       46501                       # Number of read requests accepted
system.mem_ctrls.writeReqs                      37662                       # Number of write requests accepted
system.mem_ctrls.readBursts                     46501                       # Number of controller read bursts, including those serviced by the write queue
system.mem_ctrls.writeBursts                    37662                       # Number of controller write bursts, including those merged in the write queue
system.mem_ctrls.servicedByWrQ                     20                       # Number of controller read bursts serviced by the write queue
system.mem_ctrls.mergedWrBursts                     0                       # Number of controller write bursts merged with an existing one
system.mem_ctrls.neitherReadNorWriteReqs            0                       # Number of requests that are neither read nor write
system.mem_ctrls.avgRdQLen                       1.05                       # Average read queue length when enqueuing
system.mem_ctrls.avgWrQLen                      23.58                       # Average write queue length when enqueuing
system.mem_ctrls.numRdRetry                         0                       # Number of times read queue was full causing retry
[...]
system.mem_ctrls.dram.bw_write::.writebacks     20859614                       # Write bandwidth from this memory (bytes/s)
system.mem_ctrls.dram.bw_write::total        20859614                       # Write bandwidth from this memory (bytes/s)
system.mem_ctrls.dram.bw_total::.writebacks     20859614                       # Total bandwidth to/from this memory (bytes/s)
system.mem_ctrls.dram.bw_total::.cpu.inst       282470                       # Total bandwidth to/from this memory (bytes/s)
system.mem_ctrls.dram.bw_total::.cpu.data     25472744                       # Total bandwidth to/from this memory (bytes/s)
system.mem_ctrls.dram.bw_total::total        46614828                       # Total bandwidth to/from this memory (bytes/s)
system.mem_ctrls.dram.readBursts                46481                       # Number of DRAM read bursts
system.mem_ctrls.dram.writeBursts               37644                       # Number of DRAM write bursts
system.mem_ctrls.dram.perBankRdBursts::0         2868                       # Per bank write bursts
system.mem_ctrls.dram.perBankRdBursts::1         2874                       # Per bank write bursts
system.mem_ctrls.dram.perBankRdBursts::2         2846                       # Per bank write bursts
system.mem_ctrls.dram.perBankRdBursts::3         2967                       # Per bank write bursts
system.mem_ctrls.dram.perBankRdBursts::4         2968                       # Per bank write bursts
system.mem_ctrls.dram.perBankRdBursts::5         2799                       # Per bank write bursts
system.mem_ctrls.dram.perBankRdBursts::6         2882                       # Per bank write bursts
system.mem_ctrls.dram.perBankRdBursts::7         2991                       # Per bank write bursts
system.mem_ctrls.dram.perBankRdBursts::8         2859                       # Per bank write bursts
system.mem_ctrls.dram.perBankRdBursts::9         2929                       # Per bank write bursts
system.mem_ctrls.dram.perBankRdBursts::10         2947                       # Per bank write bursts
system.mem_ctrls.dram.perBankRdBursts::11         2874                       # Per bank write bursts
system.mem_ctrls.dram.perBankRdBursts::12         2961                       # Per bank write bursts
system.mem_ctrls.dram.perBankRdBursts::13         2841                       # Per bank write bursts
system.mem_ctrls.dram.perBankRdBursts::14         2978                       # Per bank write bursts
system.mem_ctrls.dram.perBankRdBursts::15         2897                       # Per bank write bursts
system.mem_ctrls.dram.perBankWrBursts::0         2310                       # Per bank write bursts
system.mem_ctrls.dram.perBankWrBursts::1         2335                       # Per bank write bursts
system.mem_ctrls.dram.perBankWrBursts::2         2320                       # Per bank write bursts
system.mem_ctrls.dram.perBankWrBursts::3         2343                       # Per bank write bursts
system.mem_ctrls.dram.perBankWrBursts::4         2381                       # Per bank write bursts
system.mem_ctrls.dram.perBankWrBursts::5         2289                       # Per bank write bursts
system.mem_ctrls.dram.perBankWrBursts::6         2373                       # Per bank write bursts
system.mem_ctrls.dram.perBankWrBursts::7         2451                       # Per bank write bursts
system.mem_ctrls.dram.perBankWrBursts::8         2327                       # Per bank write bursts
system.mem_ctrls.dram.perBankWrBursts::9         2361                       # Per bank write bursts
system.mem_ctrls.dram.perBankWrBursts::10         2399                       # Per bank write bursts
system.mem_ctrls.dram.perBankWrBursts::11         2300                       # Per bank write bursts
system.mem_ctrls.dram.perBankWrBursts::12         2399                       # Per bank write bursts
system.mem_ctrls.dram.perBankWrBursts::13         2308                       # Per bank write bursts
system.mem_ctrls.dram.perBankWrBursts::14         2394                       # Per bank write bursts
system.mem_ctrls.dram.perBankWrBursts::15         2354                       # Per bank write bursts
system.mem_ctrls.dram.totQLat               727721250                       # Total ticks spent queuing
system.mem_ctrls.dram.totBusLat             232405000                       # Total ticks spent in databus transfers
system.mem_ctrls.dram.totMemAccLat         1599240000                       # Total ticks spent from burst creation until serviced by the DRAM
system.mem_ctrls.dram.avgQLat                15656.32                       # Average queueing delay per DRAM burst
system.mem_ctrls.dram.avgBusLat               5000.00                       # Average bus latency per DRAM burst
system.mem_ctrls.dram.avgMemAccLat           34406.32                       # Average memory access latency per DRAM burst
system.mem_ctrls.dram.readRowHits               20840                       # Number of row buffer hits during reads
system.mem_ctrls.dram.writeRowHits              27333                       # Number of row buffer hits during writes
system.mem_ctrls.dram.readRowHitRate            44.84                       # Row buffer hit rate for reads
system.mem_ctrls.dram.writeRowHitRate           72.61                       # Row buffer hit rate for writes
system.mem_ctrls.dram.bytesPerActivate::samples        35951                       # Bytes accessed per row activation
system.mem_ctrls.dram.bytesPerActivate::mean   149.757615                       # Bytes accessed per row activation
system.mem_ctrls.dram.bytesPerActivate::gmean   104.810205                       # Bytes accessed per row activation
system.mem_ctrls.dram.bytesPerActivate::stdev   181.827266                       # Bytes accessed per row activation
system.mem_ctrls.dram.bytesPerActivate::0-127        21060     58.58%     58.58% # Bytes accessed per row activation
system.mem_ctrls.dram.bytesPerActivate::128-255         9467     26.33%     84.91% # Bytes accessed per row activation
system.mem_ctrls.dram.bytesPerActivate::256-383         2052      5.71%     90.62% # Bytes accessed per row activation
system.mem_ctrls.dram.bytesPerActivate::384-511         1278      3.55%     94.18% # Bytes accessed per row activation
system.mem_ctrls.dram.bytesPerActivate::512-639          667      1.86%     96.03% # Bytes accessed per row activation
system.mem_ctrls.dram.bytesPerActivate::640-767          303      0.84%     96.87% # Bytes accessed per row activation
system.mem_ctrls.dram.bytesPerActivate::768-895          286      0.80%     97.67% # Bytes accessed per row activation
system.mem_ctrls.dram.bytesPerActivate::896-1023          268      0.75%     98.41% # Bytes accessed per row activation
system.mem_ctrls.dram.bytesPerActivate::1024-1151          570      1.59%    100.00% # Bytes accessed per row activation
system.mem_ctrls.dram.bytesPerActivate::total        35951                       # Bytes accessed per row activation
system.mem_ctrls.dram.bytesRead               2974784                       # Total number of bytes read from DRAM
system.mem_ctrls.dram.bytesWritten            2409216                       # Total number of bytes written to DRAM
system.mem_ctrls.dram.avgRdBW               25.744137                       # Average DRAM read bandwidth in MiBytes/s
system.mem_ctrls.dram.avgWrBW               20.849644                       # Average DRAM write bandwidth in MiBytes/s
system.mem_ctrls.dram.peakBW                 12800.00                       # Theoretical peak bandwidth in MiByte/s
system.mem_ctrls.dram.busUtil                    0.36                       # Data bus utilization in percentage
system.mem_ctrls.dram.busUtilRead                0.20                       # Data bus utilization in percentage for reads
system.mem_ctrls.dram.busUtilWrite               0.16                       # Data bus utilization in percentage for writes
system.mem_ctrls.dram.pageHitRate               57.26                       # Row buffer hit rate, read and write combined
system.mem_ctrls.dram.power_state.pwrStateResidencyTicks::UNDEFINED 115551901000                       # Cumulative time (in ticks) in various power states
system.mem_ctrls.dram.rank0.actEnergy       129519600                       # Energy for activate commands per rank (pJ)
system.mem_ctrls.dram.rank0.preEnergy        68837505                       # Energy for precharge commands per rank (pJ)
system.mem_ctrls.dram.rank0.readEnergy      165612300                       # Energy for read commands per rank (pJ)
system.mem_ctrls.dram.rank0.writeEnergy      98146440                       # Energy for write commands per rank (pJ)
system.mem_ctrls.dram.rank0.refreshEnergy 9121257600.000002                       # Energy for refresh commands per rank (pJ)
system.mem_ctrls.dram.rank0.actBackEnergy  24965836980                       # Energy for active background per rank (pJ)
system.mem_ctrls.dram.rank0.preBackEnergy  23348067360                       # Energy for precharge background per rank (pJ)
system.mem_ctrls.dram.rank0.actPowerDownEnergy            0                       # Energy for active power-down per rank (pJ)
system.mem_ctrls.dram.rank0.prePowerDownEnergy            0                       # Energy for precharge power-down per rank (pJ)
system.mem_ctrls.dram.rank0.selfRefreshEnergy            0                       # Energy for self refresh per rank (pJ)
system.mem_ctrls.dram.rank0.totalEnergy   57897277785                       # Total energy per rank (pJ)
system.mem_ctrls.dram.rank0.averagePower   501.049981                       # Core power per rank (mW)
system.mem_ctrls.dram.rank0.totalIdleTime            0                       # Total Idle time Per DRAM Rank
system.mem_ctrls.dram.rank0.pwrStateTime::IDLE  60455734000                       # Time in different power states
system.mem_ctrls.dram.rank0.pwrStateTime::REF   3858400000                       # Time in different power states
system.mem_ctrls.dram.rank0.pwrStateTime::SREF            0                       # Time in different power states
system.mem_ctrls.dram.rank0.pwrStateTime::PRE_PDN            0                       # Time in different power states
system.mem_ctrls.dram.rank0.pwrStateTime::ACT  51237767000                       # Time in different power states
system.mem_ctrls.dram.rank0.pwrStateTime::ACT_PDN            0                       # Time in different power states
system.mem_ctrls.dram.rank1.actEnergy       127177680                       # Energy for activate commands per rank (pJ)
system.mem_ctrls.dram.rank1.preEnergy        67596540                       # Energy for precharge commands per rank (pJ)
system.mem_ctrls.dram.rank1.readEnergy      166262040                       # Energy for read commands per rank (pJ)
system.mem_ctrls.dram.rank1.writeEnergy      98355240                       # Energy for write commands per rank (pJ)
system.mem_ctrls.dram.rank1.refreshEnergy 9121257600.000002                       # Energy for refresh commands per rank (pJ)
system.mem_ctrls.dram.rank1.actBackEnergy  25244423340                       # Energy for active background per rank (pJ)
system.mem_ctrls.dram.rank1.preBackEnergy  23113468320                       # Energy for precharge background per rank (pJ)
system.mem_ctrls.dram.rank1.actPowerDownEnergy            0                       # Energy for active power-down per rank (pJ)
system.mem_ctrls.dram.rank1.prePowerDownEnergy            0                       # Energy for precharge power-down per rank (pJ)
system.mem_ctrls.dram.rank1.selfRefreshEnergy            0                       # Energy for self refresh per rank (pJ)
system.mem_ctrls.dram.rank1.totalEnergy   57938540760                       # Total energy per rank (pJ)
system.mem_ctrls.dram.rank1.averagePower   501.407076                       # Core power per rank (mW)
system.mem_ctrls.dram.rank1.totalIdleTime            0                       # Total Idle time Per DRAM Rank
system.mem_ctrls.dram.rank1.pwrStateTime::IDLE  59842482500                       # Time in different power states
system.mem_ctrls.dram.rank1.pwrStateTime::REF   3858400000                       # Time in different power states
system.mem_ctrls.dram.rank1.pwrStateTime::SREF            0                       # Time in different power states
system.mem_ctrls.dram.rank1.pwrStateTime::PRE_PDN            0                       # Time in different power states
system.mem_ctrls.dram.rank1.pwrStateTime::ACT  51851018500                       # Time in different power states
system.mem_ctrls.dram.rank1.pwrStateTime::ACT_PDN            0                       # Time in different power states
system.mem_ctrls.power_state.pwrStateResidencyTicks::UNDEFINED 115551901000                       # Cumulative time (in ticks) in various power states
system.membus.trans_dist::ReadResp               7689                       # Transaction distribution
system.membus.trans_dist::WritebackDirty        37662                       # Transaction distribution
system.membus.trans_dist::CleanEvict              204                       # Transaction distribution
system.membus.trans_dist::ReadExReq             38812                       # Transaction distribution
system.membus.trans_dist::ReadExResp            38812                       # Transaction distribution
system.membus.trans_dist::ReadSharedReq          7689                       # Transaction distribution
system.membus.pkt_count_system.l2.mem_side_port::system.mem_ctrls.port       130868                       # Packet count per connected requestor and responder (bytes)
system.membus.pkt_count::total                 130868                       # Packet count per connected requestor and responder (bytes)
system.membus.pkt_size_system.l2.mem_side_port::system.mem_ctrls.port      5386432                       # Cumulative packet size per connected requestor and responder (bytes)
system.membus.pkt_size::total                 5386432                       # Cumulative packet size per connected requestor and responder (bytes)
system.membus.snoops                                0                       # Total snoops (count)
system.membus.snoopTraffic                          0                       # Total snoop traffic (bytes)
system.membus.snoop_fanout::samples             46501                       # Request fanout histogram
system.membus.snoop_fanout::mean                    0                       # Request fanout histogram
system.membus.snoop_fanout::stdev                   0                       # Request fanout histogram
system.membus.snoop_fanout::underflows              0      0.00%      0.00% # Request fanout histogram
system.membus.snoop_fanout::0                   46501    100.00%    100.00% # Request fanout histogram
system.membus.snoop_fanout::1                       0      0.00%    100.00% # Request fanout histogram
system.membus.snoop_fanout::overflows               0      0.00%    100.00% # Request fanout histogram
system.membus.snoop_fanout::min_value               0                       # Request fanout histogram
system.membus.snoop_fanout::max_value               0                       # Request fanout histogram
system.membus.snoop_fanout::total               46501                       # Request fanout histogram
system.membus.power_state.pwrStateResidencyTicks::UNDEFINED 115551901000                       # Cumulative time (in ticks) in various power states
system.membus.reqLayer0.occupancy           235015000                       # Layer occupancy (ticks)
system.membus.reqLayer0.utilization               0.2                       # Layer utilization (%)
system.membus.respLayer1.occupancy          250588750                       # Layer occupancy (ticks)
system.membus.respLayer1.utilization              0.2                       # Layer utilization (%)
system.tol2bus.trans_dist::ReadResp             78432                       # Transaction distribution
system.tol2bus.trans_dist::WritebackDirty       110001                       # Transaction distribution
system.tol2bus.trans_dist::WritebackClean          758                       # Transaction distribution
system.tol2bus.trans_dist::CleanEvict           52954                       # Transaction distribution
system.tol2bus.trans_dist::ReadExReq            47797                       # Transaction distribution
system.tol2bus.trans_dist::ReadExResp           47796                       # Transaction distribution
system.tol2bus.trans_dist::ReadCleanReq          1200                       # Transaction distribution
system.tol2bus.trans_dist::ReadSharedReq        77232                       # Transaction distribution
system.tol2bus.pkt_count_system.cpu.icache.mem_side_port::system.l2.cpu_side_port         3158                       # Packet count per connected requestor and responder (bytes)
system.tol2bus.pkt_count_system.cpu.dcache.mem_side_port::system.l2.cpu_side_port       374573                       # Packet count per connected requestor and responder (bytes)
system.tol2bus.pkt_count::total                377731                       # Packet count per connected requestor and responder (bytes)
system.tol2bus.pkt_size_system.cpu.icache.mem_side_port::system.l2.cpu_side_port       125312                       # Cumulative packet size per connected requestor and responder (bytes)
system.tol2bus.pkt_size_system.cpu.dcache.mem_side_port::system.l2.cpu_side_port     12631424                       # Cumulative packet size per connected requestor and responder (bytes)
system.tol2bus.pkt_size::total               12756736                       # Cumulative packet size per connected requestor and responder (bytes)
system.tol2bus.snoops                           38439                       # Total snoops (count)
system.tol2bus.snoopTraffic                   2410432                       # Total snoop traffic (bytes)
system.tol2bus.snoop_fanout::samples           164668                       # Request fanout histogram
system.tol2bus.snoop_fanout::mean            0.019026                       # Request fanout histogram
system.tol2bus.snoop_fanout::stdev           0.137017                       # Request fanout histogram
system.tol2bus.snoop_fanout::underflows             0      0.00%      0.00% # Request fanout histogram
system.tol2bus.snoop_fanout::0                 161544     98.10%     98.10% # Request fanout histogram
system.tol2bus.snoop_fanout::1                   3115      1.89%     99.99% # Request fanout histogram
system.tol2bus.snoop_fanout::2                      9      0.01%    100.00% # Request fanout histogram
system.tol2bus.snoop_fanout::overflows              0      0.00%    100.00% # Request fanout histogram
system.tol2bus.snoop_fanout::min_value              0                       # Request fanout histogram
system.tol2bus.snoop_fanout::max_value              2                       # Request fanout histogram
system.tol2bus.snoop_fanout::total             164668                       # Request fanout histogram
system.tol2bus.power_state.pwrStateResidencyTicks::UNDEFINED 115551901000                       # Cumulative time (in ticks) in various power states
system.tol2bus.reqLayer0.occupancy          397695000                       # Layer occupancy (ticks)
system.tol2bus.reqLayer0.utilization              0.3                       # Layer utilization (%)
system.tol2bus.respLayer0.occupancy           3600999                       # Layer occupancy (ticks)
system.tol2bus.respLayer0.utilization             0.0                       # Layer utilization (%)
system.tol2bus.respLayer1.occupancy         375088995                       # Layer occupancy (ticks)
system.tol2bus.respLayer1.utilization             0.3                       # Layer utilization (%)
system.voltage_domain.voltage                       1                       # Voltage in Volts

---------- End Simulation Statistics   ----------
