
---------- Begin Simulation Statistics ----------
final_tick                               117806615000                       # Number of ticks from beginning of simulation (restored from checkpoints and never reset)
host_inst_rate                                 423276                       # Simulator instruction rate (inst/s)
host_mem_usage                                 664528                       # Number of bytes of host memory used
host_op_rate                                   427944                       # Simulator op (including micro ops) rate (op/s)
host_seconds                                   236.25                       # Real time elapsed on the host
host_tick_rate                              498647346                       # Simulator tick rate (ticks/s)
sim_freq                                 1000000000000                       # Frequency of simulated ticks
sim_insts                                   100000000                       # Number of instructions simulated
sim_ops                                     101102842                       # Number of ops (including micro ops) simulated
sim_seconds                                  0.117807                       # Number of seconds simulated
sim_ticks                                117806615000                       # Number of ticks simulated
system.cpu.committedInsts                   100000000                       # Number of instructions committed
system.cpu.committedOps                     101102842                       # Number of ops (including micro ops) committed
system.cpu.cpi                               1.178066                       # CPI: cycles per instruction
system.cpu.discardedOps                        973320                       # Number of ops (including micro ops) which were discarded before commit
system.cpu.idleCycles                         2209229                       # Total number of cycles that the object has spent stopped
system.cpu.ipc                               0.848849                       # IPC: instructions per cycle
system.cpu.numCycles                        117806615                       # number of cpu cycles simulated
system.cpu.numFetchSuspends                         0                       # Number of times Execute suspended instruction fetching
system.cpu.numWorkItemsCompleted                    0                       # number of work items this cpu completed
system.cpu.numWorkItemsStarted                      0                       # number of work items this cpu started
system.cpu.op_class_0::No_OpClass                   0      0.00%      0.00% # Class of committed instruction
system.cpu.op_class_0::IntAlu                55116018     54.51%     54.51% # Class of committed instruction
system.cpu.op_class_0::IntMult                 167845      0.17%     54.68% # Class of committed instruction
system.cpu.op_class_0::IntDiv                       0      0.00%     54.68% # Class of committed instruction
system.cpu.op_class_0::FloatAdd                     0      0.00%     54.68% # Class of committed instruction
system.cpu.op_class_0::FloatCmp                     0      0.00%     54.68% # Class of committed instruction
system.cpu.op_class_0::FloatCvt                     0      0.00%     54.68% # Class of committed instruction
system.cpu.op_class_0::FloatMult                    0      0.00%     54.68% # Class of committed instruction
system.cpu.op_class_0::FloatMultAcc                 0      0.00%     54.68% # Class of committed instruction
system.cpu.op_class_0::FloatDiv                     0      0.00%     54.68% # Class of committed instruction
system.cpu.op_class_0::FloatMisc                    0      0.00%     54.68% # Class of committed instruction
system.cpu.op_class_0::FloatSqrt                    0      0.00%     54.68% # Class of committed instruction
system.cpu.op_class_0::SimdAdd                    376      0.00%     54.68% # Class of committed instruction
system.cpu.op_class_0::SimdAddAcc                   0      0.00%     54.68% # Class of committed instruction
system.cpu.op_class_0::SimdAlu                    466      0.00%     54.68% # Class of committed instruction
system.cpu.op_class_0::SimdCmp                    378      0.00%     54.68% # Class of committed instruction
system.cpu.op_class_0::SimdCvt                      0      0.00%     54.68% # Class of committed instruction
system.cpu.op_class_0::SimdMisc                    53      0.00%     54.68% # Class of committed instruction
system.cpu.op_class_0::SimdMult                     0      0.00%     54.68% # Class of committed instruction
system.cpu.op_class_0::SimdMultAcc                  0      0.00%     54.68% # Class of committed instruction
system.cpu.op_class_0::SimdShift                    0      0.00%     54.68% # Class of committed instruction
system.cpu.op_class_0::SimdShiftAcc                 0      0.00%     54.68% # Class of committed instruction
system.cpu.op_class_0::SimdDiv                      0      0.00%     54.68% # Class of committed instruction
system.cpu.op_class_0::SimdSqrt                     0      0.00%     54.68% # Class of committed instruction
system.cpu.op_class_0::SimdFloatAdd            267609      0.26%     54.95% # Class of committed instruction
system.cpu.op_class_0::SimdFloatAlu                 0      0.00%     54.95% # Class of committed instruction
system.cpu.op_class_0::SimdFloatCmp            259630      0.26%     55.20% # Class of committed instruction
system.cpu.op_class_0::SimdFloatCvt            161456      0.16%     55.36% # Class of committed instruction
system.cpu.op_class_0::SimdFloatDiv             54308      0.05%     55.42% # Class of committed instruction
system.cpu.op_class_0::SimdFloatMisc           483616      0.48%     55.90% # Class of committed instruction
system.cpu.op_class_0::SimdFloatMult            33524      0.03%     55.93% # Class of committed instruction
system.cpu.op_class_0::SimdFloatMultAcc         11115      0.01%     55.94% # Class of committed instruction
system.cpu.op_class_0::SimdFloatSqrt                0      0.00%     55.94% # Class of committed instruction
system.cpu.op_class_0::SimdReduceAdd                0      0.00%     55.94% # Class of committed instruction
system.cpu.op_class_0::SimdReduceAlu                0      0.00%     55.94% # Class of committed instruction
system.cpu.op_class_0::SimdReduceCmp                0      0.00%     55.94% # Class of committed instruction
system.cpu.op_class_0::SimdFloatReduceAdd            0      0.00%     55.94% # Class of committed instruction
system.cpu.op_class_0::SimdFloatReduceCmp            0      0.00%     55.94% # Class of committed instruction
system.cpu.op_class_0::SimdAes                      0      0.00%     55.94% # Class of committed instruction
system.cpu.op_class_0::SimdAesMix                   0      0.00%     55.94% # Class of committed instruction
system.cpu.op_class_0::SimdSha1Hash                 0      0.00%     55.94% # Class of committed instruction
system.cpu.op_class_0::SimdSha1Hash2                0      0.00%     55.94% # Class of committed instruction
system.cpu.op_class_0::SimdSha256Hash               0      0.00%     55.94% # Class of committed instruction
system.cpu.op_class_0::SimdSha256Hash2              0      0.00%     55.94% # Class of committed instruction
system.cpu.op_class_0::SimdShaSigma2                0      0.00%     55.94% # Class of committed instruction
system.cpu.op_class_0::SimdShaSigma3                0      0.00%     55.94% # Class of committed instruction
system.cpu.op_class_0::SimdPredAlu                  0      0.00%     55.94% # Class of committed instruction
system.cpu.op_class_0::MemRead               38167367     37.75%     93.69% # Class of committed instruction
system.cpu.op_class_0::MemWrite               6379081      6.31%    100.00% # Class of committed instruction
system.cpu.op_class_0::FloatMemRead                 0      0.00%    100.00% # Class of committed instruction
system.cpu.op_class_0::FloatMemWrite                0      0.00%    100.00% # Class of committed instruction
system.cpu.op_class_0::IprAccess                    0      0.00%    100.00% # Class of committed instruction
system.cpu.op_class_0::InstPrefetch                 0      0.00%    100.00% # Class of committed instruction
system.cpu.op_class_0::total                101102842                       # Class of committed instruction
system.cpu.tickCycles                       115597386                       # Number of cycles that the object actually ticked
system.cpu.workload.numSyscalls                    32                       # Number of system calls
system.membus.snoop_filter.hit_multi_requests            0                       # Number of requests hitting in the snoop filter with multiple (>1) holders of the requested data.
system.membus.snoop_filter.hit_multi_snoops            0                       # Number of snoops hitting in the snoop filter with multiple (>1) holders of the requested data.
system.membus.snoop_filter.hit_single_requests            0                       # Number of requests hitting in the snoop filter with a single holder of the requested data.
system.membus.snoop_filter.hit_single_snoops            0                       # Number of snoops hitting in the snoop filter with a single holder of the requested data.
system.membus.snoop_filter.tot_requests          1614                       # Total number of requests made to the snoop filter.
system.membus.snoop_filter.tot_snoops               0                       # Total number of snoops made to the snoop filter.
system.tol2bus.snoop_filter.hit_multi_requests         1276                       # Number of requests hitting in the snoop filter with multiple (>1) holders of the requested data.
system.tol2bus.snoop_filter.hit_multi_snoops            0                       # Number of snoops hitting in the snoop filter with multiple (>1) holders of the requested data.
system.tol2bus.snoop_filter.hit_single_requests        24419                       # Number of requests hitting in the snoop filter with a single holder of the requested data.
system.tol2bus.snoop_filter.hit_single_snoops            0                       # Number of snoops hitting in the snoop filter with a single holder of the requested data.
system.tol2bus.snoop_filter.tot_requests        49312                       # Total number of requests made to the snoop filter.
system.tol2bus.snoop_filter.tot_snoops              0                       # Total number of snoops made to the snoop filter.
system.clk_domain.clock                          1000                       # Clock period in ticks
system.cpu.branchPred.lookups                 6503081                       # Number of BP lookups
system.cpu.branchPred.condPredicted           5095083                       # Number of conditional branches predicted
system.cpu.branchPred.condIncorrect            349128                       # Number of conditional branches incorrect
system.cpu.branchPred.BTBLookups              4085597                       # Number of BTB lookups
system.cpu.branchPred.BTBHits                 4078089                       # Number of BTB hits
system.cpu.branchPred.BTBHitPct             99.816232                       # BTB Hit Percentage
system.cpu.branchPred.RASUsed                  312589                       # Number of times the RAS was used to get a target.
system.cpu.branchPred.RASIncorrect                  4                       # Number of incorrect RAS predictions.
system.cpu.branchPred.indirectLookups          675698                       # Number of indirect predictor lookups.
system.cpu.branchPred.indirectHits             102890                       # Number of indirect target hits.
system.cpu.branchPred.indirectMisses           572808                       # Number of indirect misses.
system.cpu.branchPred.indirectMispredicted        37442                       # Number of mispredicted indirect branches.
system.cpu.dcache.demand_hits::.cpu.data     43877365                       # number of demand (read+write) hits
system.cpu.dcache.demand_hits::total         43877365                       # number of demand (read+write) hits
system.cpu.dcache.overall_hits::.cpu.data     43886072                       # number of overall hits
system.cpu.dcache.overall_hits::total        43886072                       # number of overall hits
system.cpu.dcache.demand_misses::.cpu.data        20576                       # number of demand (read+write) misses
system.cpu.dcache.demand_misses::total          20576                       # number of demand (read+write) misses
system.cpu.dcache.overall_misses::.cpu.data        20621                       # number of overall misses
system.cpu.dcache.overall_misses::total         20621                       # number of overall misses
system.cpu.dcache.demand_miss_latency::.cpu.data    703383000                       # number of demand (read+write) miss cycles
system.cpu.dcache.demand_miss_latency::total    703383000                       # number of demand (read+write) miss cycles
system.cpu.dcache.overall_miss_latency::.cpu.data    703383000                       # number of overall miss cycles
system.cpu.dcache.overall_miss_latency::total    703383000                       # number of overall miss cycles
system.cpu.dcache.demand_accesses::.cpu.data     43897941                       # number of demand (read+write) accesses
system.cpu.dcache.demand_accesses::total     43897941                       # number of demand (read+write) accesses
system.cpu.dcache.overall_accesses::.cpu.data     43906693                       # number of overall (read+write) accesses
system.cpu.dcache.overall_accesses::total     43906693                       # number of overall (read+write) accesses
system.cpu.dcache.demand_miss_rate::.cpu.data     0.000469                       # miss rate for demand accesses
system.cpu.dcache.demand_miss_rate::total     0.000469                       # miss rate for demand accesses
system.cpu.dcache.overall_miss_rate::.cpu.data     0.000470                       # miss rate for overall accesses
system.cpu.dcache.overall_miss_rate::total     0.000470                       # miss rate for overall accesses
system.cpu.dcache.demand_avg_miss_latency::.cpu.data 34184.632582                       # average overall miss latency
system.cpu.dcache.demand_avg_miss_latency::total 34184.632582                       # average overall miss latency
system.cpu.dcache.overall_avg_miss_latency::.cpu.data 34110.033461                       # average overall miss latency
system.cpu.dcache.overall_avg_miss_latency::total 34110.033461                       # average overall miss latency
system.cpu.dcache.blocked_cycles::no_mshrs            0                       # number of cycles access was blocked
system.cpu.dcache.blocked_cycles::no_targets            0                       # number of cycles access was blocked
system.cpu.dcache.blocked::no_mshrs                 0                       # number of cycles access was blocked
system.cpu.dcache.blocked::no_targets               0                       # number of cycles access was blocked
system.cpu.dcache.avg_blocked_cycles::no_mshrs          nan                       # average number of cycles each access was blocked
system.cpu.dcache.avg_blocked_cycles::no_targets          nan                       # average number of cycles each access was blocked
system.cpu.dcache.writebacks::.writebacks        17738                       # number of writebacks
system.cpu.dcache.writebacks::total             17738                       # number of writebacks
system.cpu.dcache.demand_mshr_hits::.cpu.data         1569                       # number of demand (read+write) MSHR hits
system.cpu.dcache.demand_mshr_hits::total         1569                       # number of demand (read+write) MSHR hits
system.cpu.dcache.overall_mshr_hits::.cpu.data         1569                       # number of overall MSHR hits
system.cpu.dcache.overall_mshr_hits::total         1569                       # number of overall MSHR hits
system.cpu.dcache.demand_mshr_misses::.cpu.data        19007                       # number of demand (read+write) MSHR misses
system.cpu.dcache.demand_mshr_misses::total        19007                       # number of demand (read+write) MSHR misses
system.cpu.dcache.overall_mshr_misses::.cpu.data        19031                       # number of overall MSHR misses
system.cpu.dcache.overall_mshr_misses::total        19031                       # number of overall MSHR misses
system.cpu.dcache.demand_mshr_miss_latency::.cpu.data    567246000                       # number of demand (read+write) MSHR miss cycles
system.cpu.dcache.demand_mshr_miss_latency::total    567246000                       # number of demand (read+write) MSHR miss cycles
system.cpu.dcache.overall_mshr_miss_latency::.cpu.data    570150000                       # number of overall MSHR miss cycles
system.cpu.dcache.overall_mshr_miss_latency::total    570150000                       # number of overall MSHR miss cycles
system.cpu.dcache.demand_mshr_miss_rate::.cpu.data     0.000433                       # mshr miss rate for demand accesses
system.cpu.dcache.demand_mshr_miss_rate::total     0.000433                       # mshr miss rate for demand accesses
system.cpu.dcache.overall_mshr_miss_rate::.cpu.data     0.000433                       # mshr miss rate for overall accesses
system.cpu.dcache.overall_mshr_miss_rate::total     0.000433                       # mshr miss rate for overall accesses
system.cpu.dcache.demand_avg_mshr_miss_latency::.cpu.data 29844.057453                       # average overall mshr miss latency
system.cpu.dcache.demand_avg_mshr_miss_latency::total 29844.057453                       # average overall mshr miss latency
system.cpu.dcache.overall_avg_mshr_miss_latency::.cpu.data 29959.014240                       # average overall mshr miss latency
system.cpu.dcache.overall_avg_mshr_miss_latency::total 29959.014240                       # average overall mshr miss latency
system.cpu.dcache.replacements                  18775                       # number of replacements
system.cpu.dcache.ReadReq_hits::.cpu.data     37572638                       # number of ReadReq hits
system.cpu.dcache.ReadReq_hits::total        37572638                       # number of ReadReq hits
system.cpu.dcache.ReadReq_misses::.cpu.data         4537                       # number of ReadReq misses
system.cpu.dcache.ReadReq_misses::total          4537                       # number of ReadReq misses
system.cpu.dcache.ReadReq_miss_latency::.cpu.data    139862000                       # number of ReadReq miss cycles
system.cpu.dcache.ReadReq_miss_latency::total    139862000                       # number of ReadReq miss cycles
system.cpu.dcache.ReadReq_accesses::.cpu.data     37577175                       # number of ReadReq accesses(hits+misses)
system.cpu.dcache.ReadReq_accesses::total     37577175                       # number of ReadReq accesses(hits+misses)
system.cpu.dcache.ReadReq_miss_rate::.cpu.data     0.000121                       # miss rate for ReadReq accesses
system.cpu.dcache.ReadReq_miss_rate::total     0.000121                       # miss rate for ReadReq accesses
system.cpu.dcache.ReadReq_avg_miss_latency::.cpu.data 30826.978179                       # average ReadReq miss latency
system.cpu.dcache.ReadReq_avg_miss_latency::total 30826.978179                       # average ReadReq miss latency
system.cpu.dcache.ReadReq_mshr_hits::.cpu.data           82                       # number of ReadReq MSHR hits
system.cpu.dcache.ReadReq_mshr_hits::total           82                       # number of ReadReq MSHR hits
system.cpu.dcache.ReadReq_mshr_misses::.cpu.data         4455                       # number of ReadReq MSHR misses
system.cpu.dcache.ReadReq_mshr_misses::total         4455                       # number of ReadReq MSHR misses
system.cpu.dcache.ReadReq_mshr_miss_latency::.cpu.data    126629000                       # number of ReadReq MSHR miss cycles
system.cpu.dcache.ReadReq_mshr_miss_latency::total    126629000                       # number of ReadReq MSHR miss cycles
system.cpu.dcache.ReadReq_mshr_miss_rate::.cpu.data     0.000119                       # mshr miss rate for ReadReq accesses
system.cpu.dcache.ReadReq_mshr_miss_rate::total     0.000119                       # mshr miss rate for ReadReq accesses
system.cpu.dcache.ReadReq_avg_mshr_miss_latency::.cpu.data 28424.017957                       # average ReadReq mshr miss latency
system.cpu.dcache.ReadReq_avg_mshr_miss_latency::total 28424.017957                       # average ReadReq mshr miss latency
system.cpu.dcache.WriteReq_hits::.cpu.data      6304727                       # number of WriteReq hits
system.cpu.dcache.WriteReq_hits::total        6304727                       # number of WriteReq hits
system.cpu.dcache.WriteReq_misses::.cpu.data        16039                       # number of WriteReq misses
system.cpu.dcache.WriteReq_misses::total        16039                       # number of WriteReq misses
system.cpu.dcache.WriteReq_miss_latency::.cpu.data    563521000                       # number of WriteReq miss cycles
system.cpu.dcache.WriteReq_miss_latency::total    563521000                       # number of WriteReq miss cycles
system.cpu.dcache.WriteReq_accesses::.cpu.data      6320766                       # number of WriteReq accesses(hits+misses)
system.cpu.dcache.WriteReq_accesses::total      6320766                       # number of WriteReq accesses(hits+misses)
system.cpu.dcache.WriteReq_miss_rate::.cpu.data     0.002538                       # miss rate for WriteReq accesses
system.cpu.dcache.WriteReq_miss_rate::total     0.002538                       # miss rate for WriteReq accesses
system.cpu.dcache.WriteReq_avg_miss_latency::.cpu.data 35134.422346                       # average WriteReq miss latency
system.cpu.dcache.WriteReq_avg_miss_latency::total 35134.422346                       # average WriteReq miss latency
system.cpu.dcache.WriteReq_mshr_hits::.cpu.data         1487                       # number of WriteReq MSHR hits
system.cpu.dcache.WriteReq_mshr_hits::total         1487                       # number of WriteReq MSHR hits
system.cpu.dcache.WriteReq_mshr_misses::.cpu.data        14552                       # number of WriteReq MSHR misses
system.cpu.dcache.WriteReq_mshr_misses::total        14552                       # number of WriteReq MSHR misses
system.cpu.dcache.WriteReq_mshr_miss_latency::.cpu.data    440617000                       # number of WriteReq MSHR miss cycles
system.cpu.dcache.WriteReq_mshr_miss_latency::total    440617000                       # number of WriteReq MSHR miss cycles
system.cpu.dcache.WriteReq_mshr_miss_rate::.cpu.data     0.002302                       # mshr miss rate for WriteReq accesses
system.cpu.dcache.WriteReq_mshr_miss_rate::total     0.002302                       # mshr miss rate for WriteReq accesses
system.cpu.dcache.WriteReq_avg_mshr_miss_latency::.cpu.data 30278.793293                       # average WriteReq mshr miss latency
system.cpu.dcache.WriteReq_avg_mshr_miss_latency::total 30278.793293                       # average WriteReq mshr miss latency
system.cpu.dcache.SoftPFReq_hits::.cpu.data         8707                       # number of SoftPFReq hits
system.cpu.dcache.SoftPFReq_hits::total          8707                       # number of SoftPFReq hits
system.cpu.dcache.SoftPFReq_misses::.cpu.data           45                       # number of SoftPFReq misses
system.cpu.dcache.SoftPFReq_misses::total           45                       # number of SoftPFReq misses
system.cpu.dcache.SoftPFReq_accesses::.cpu.data         8752                       # number of SoftPFReq accesses(hits+misses)
system.cpu.dcache.SoftPFReq_accesses::total         8752                       # number of SoftPFReq accesses(hits+misses)
system.cpu.dcache.SoftPFReq_miss_rate::.cpu.data     0.005142                       # miss rate for SoftPFReq accesses
system.cpu.dcache.SoftPFReq_miss_rate::total     0.005142                       # miss rate for SoftPFReq accesses
system.cpu.dcache.SoftPFReq_mshr_misses::.cpu.data           24                       # number of SoftPFReq MSHR misses
system.cpu.dcache.SoftPFReq_mshr_misses::total           24                       # number of SoftPFReq MSHR misses
system.cpu.dcache.SoftPFReq_mshr_miss_latency::.cpu.data      2904000                       # number of SoftPFReq MSHR miss cycles
system.cpu.dcache.SoftPFReq_mshr_miss_latency::total      2904000                       # number of SoftPFReq MSHR miss cycles
system.cpu.dcache.SoftPFReq_mshr_miss_rate::.cpu.data     0.002742                       # mshr miss rate for SoftPFReq accesses
system.cpu.dcache.SoftPFReq_mshr_miss_rate::total     0.002742                       # mshr miss rate for SoftPFReq accesses
system.cpu.dcache.SoftPFReq_avg_mshr_miss_latency::.cpu.data       121000                       # average SoftPFReq mshr miss latency
system.cpu.dcache.SoftPFReq_avg_mshr_miss_latency::total       121000                       # average SoftPFReq mshr miss latency
system.cpu.dcache.LoadLockedReq_hits::.cpu.data          166                       # number of LoadLockedReq hits
system.cpu.dcache.LoadLockedReq_hits::total          166                       # number of LoadLockedReq hits
system.cpu.dcache.LoadLockedReq_accesses::.cpu.data          166                       # number of LoadLockedReq accesses(hits+misses)
system.cpu.dcache.LoadLockedReq_accesses::total          166                       # number of LoadLockedReq accesses(hits+misses)
system.cpu.dcache.StoreCondReq_hits::.cpu.data          166                       # number of StoreCondReq hits
system.cpu.dcache.StoreCondReq_hits::total          166                       # number of StoreCondReq hits
system.cpu.dcache.StoreCondReq_accesses::.cpu.data          166                       # number of StoreCondReq accesses(hits+misses)
system.cpu.dcache.StoreCondReq_accesses::total          166                       # number of StoreCondReq accesses(hits+misses)
system.cpu.dcache.power_state.pwrStateResidencyTicks::UNDEFINED 117806615000                       # Cumulative time (in ticks) in various power states
system.cpu.dcache.tags.tagsinuse           254.948720                       # Cycle average of tags in use
system.cpu.dcache.tags.total_refs            43905435                       # Total number of references to valid blocks.
system.cpu.dcache.tags.sampled_refs             19031                       # Sample count of references to valid blocks.
system.cpu.dcache.tags.avg_refs           2307.048237                       # Average number of references to valid blocks.
system.cpu.dcache.tags.warmup_cycle            258000                       # Cycle when the warmup percentage was hit.
system.cpu.dcache.tags.occ_blocks::.cpu.data   254.948720                       # Average occupied blocks per requestor
system.cpu.dcache.tags.occ_percent::.cpu.data     0.995893                       # Average percentage of cache occupancy
system.cpu.dcache.tags.occ_percent::total     0.995893                       # Average percentage of cache occupancy
system.cpu.dcache.tags.occ_task_id_blocks::1024          256                       # Occupied blocks per task id
system.cpu.dcache.tags.age_task_id_blocks_1024::0            1                       # Occupied blocks per task id
system.cpu.dcache.tags.age_task_id_blocks_1024::1           15                       # Occupied blocks per task id
system.cpu.dcache.tags.age_task_id_blocks_1024::2          125                       # Occupied blocks per task id
system.cpu.dcache.tags.age_task_id_blocks_1024::3          101                       # Occupied blocks per task id
system.cpu.dcache.tags.age_task_id_blocks_1024::4           14                       # Occupied blocks per task id
system.cpu.dcache.tags.occ_task_id_percent::1024            1                       # Percentage of cache occupancy per task id
system.cpu.dcache.tags.tag_accesses         175647131                       # Number of tag accesses
system.cpu.dcache.tags.data_accesses        175647131                       # Number of data accesses
system.cpu.dcache.tags.power_state.pwrStateResidencyTicks::UNDEFINED 117806615000                       # Cumulative time (in ticks) in various power states
system.cpu.dtb.instHits                             0                       # ITB inst hits
system.cpu.dtb.instMisses                           0                       # ITB inst misses
system.cpu.dtb.readHits                             0                       # DTB read hits
system.cpu.dtb.readMisses                           0                       # DTB read misses
system.cpu.dtb.writeHits                            0                       # DTB write hits
system.cpu.dtb.writeMisses                          0                       # DTB write misses
system.cpu.dtb.inserts                              0                       # Number of times an entry is inserted into the TLB
system.cpu.dtb.flushTlb                             0                       # Number of times complete TLB was flushed
system.cpu.dtb.flushTlbMva                          0                       # Number of times TLB was flushed by MVA
system.cpu.dtb.flushTlbMvaAsid                      0                       # Number of times TLB was flushed by MVA & ASID
system.cpu.dtb.flushTlbAsid                         0                       # Number of times TLB was flushed by ASID
system.cpu.dtb.flushedEntries                       0                       # Number of entries that have been flushed from TLB
system.cpu.dtb.alignFaults                          0                       # Number of TLB faults due to alignment restrictions
system.cpu.dtb.prefetchFaults                       0                       # Number of TLB faults due to prefetch
system.cpu.dtb.domainFaults                         0                       # Number of TLB faults due to domain restrictions
system.cpu.dtb.permsFaults                          0                       # Number of TLB faults due to permissions restrictions
system.cpu.dtb.readAccesses                         0                       # DTB read accesses
system.cpu.dtb.writeAccesses                        0                       # DTB write accesses
system.cpu.dtb.instAccesses                         0                       # ITB inst accesses
system.cpu.dtb.hits                                 0                       # Total TLB (inst and data) hits
system.cpu.dtb.misses                               0                       # Total TLB (inst and data) misses
system.cpu.dtb.accesses                             0                       # Total TLB (inst and data) accesses
system.cpu.dtb.stage2_mmu.stage2_tlb.instHits            0                       # ITB inst hits
system.cpu.dtb.stage2_mmu.stage2_tlb.instMisses            0                       # ITB inst misses
system.cpu.dtb.stage2_mmu.stage2_tlb.readHits            0                       # DTB read hits
system.cpu.dtb.stage2_mmu.stage2_tlb.readMisses            0                       # DTB read misses
system.cpu.dtb.stage2_mmu.stage2_tlb.writeHits            0                       # DTB write hits
system.cpu.dtb.stage2_mmu.stage2_tlb.writeMisses            0                       # DTB write misses
system.cpu.dtb.stage2_mmu.stage2_tlb.inserts            0                       # Number of times an entry is inserted into the TLB
system.cpu.dtb.stage2_mmu.stage2_tlb.flushTlb            0                       # Number of times complete TLB was flushed
system.cpu.dtb.stage2_mmu.stage2_tlb.flushTlbMva            0                       # Number of times TLB was flushed by MVA
system.cpu.dtb.stage2_mmu.stage2_tlb.flushTlbMvaAsid            0                       # Number of times TLB was flushed by MVA & ASID
system.cpu.dtb.stage2_mmu.stage2_tlb.flushTlbAsid            0                       # Number of times TLB was flushed by ASID
system.cpu.dtb.stage2_mmu.stage2_tlb.flushedEntries            0                       # Number of entries that have been flushed from TLB
system.cpu.dtb.stage2_mmu.stage2_tlb.alignFaults            0                       # Number of TLB faults due to alignment restrictions
system.cpu.dtb.stage2_mmu.stage2_tlb.prefetchFaults            0                       # Number of TLB faults due to prefetch
system.cpu.dtb.stage2_mmu.stage2_tlb.domainFaults            0                       # Number of TLB faults due to domain restrictions
system.cpu.dtb.stage2_mmu.stage2_tlb.permsFaults            0                       # Number of TLB faults due to permissions restrictions
system.cpu.dtb.stage2_mmu.stage2_tlb.readAccesses            0                       # DTB read accesses
system.cpu.dtb.stage2_mmu.stage2_tlb.writeAccesses            0                       # DTB write accesses
system.cpu.dtb.stage2_mmu.stage2_tlb.instAccesses            0                       # ITB inst accesses
system.cpu.dtb.stage2_mmu.stage2_tlb.hits            0                       # Total TLB (inst and data) hits
system.cpu.dtb.stage2_mmu.stage2_tlb.misses            0                       # Total TLB (inst and data) misses
system.cpu.dtb.stage2_mmu.stage2_tlb.accesses            0                       # Total TLB (inst and data) accesses
system.cpu.dtb.stage2_mmu.stage2_tlb.walker.walks            0                       # Table walker walks requested
system.cpu.dtb.stage2_mmu.stage2_tlb.walker.requestOrigin_Requested::Data            0                       # Table walker requests started/completed, data/inst
system.cpu.dtb.stage2_mmu.stage2_tlb.walker.requestOrigin_Requested::Inst            0                       # Table walker requests started/completed, data/inst
system.cpu.dtb.stage2_mmu.stage2_tlb.walker.requestOrigin_Requested::total            0                       # Table walker requests started/completed, data/inst
system.cpu.dtb.stage2_mmu.stage2_tlb.walker.requestOrigin_Completed::Data            0                       # Table walker requests started/completed, data/inst
system.cpu.dtb.stage2_mmu.stage2_tlb.walker.requestOrigin_Completed::Inst            0                       # Table walker requests started/completed, data/inst
system.cpu.dtb.stage2_mmu.stage2_tlb.walker.requestOrigin_Completed::total            0                       # Table walker requests started/completed, data/inst
system.cpu.dtb.stage2_mmu.stage2_tlb.walker.requestOrigin::total            0                       # Table walker requests started/completed, data/inst
system.cpu.dtb.stage2_mmu.stage2_tlb.walker.power_state.pwrStateResidencyTicks::UNDEFINED 117806615000                       # Cumulative time (in ticks) in various power states
system.cpu.dtb.walker.walks                         0                       # Table walker walks requested
system.cpu.dtb.walker.requestOrigin_Requested::Data            0                       # Table walker requests started/completed, data/inst
system.cpu.dtb.walker.requestOrigin_Requested::Inst            0                       # Table walker requests started/completed, data/inst
system.cpu.dtb.walker.requestOrigin_Requested::total            0                       # Table walker requests started/completed, data/inst
system.cpu.dtb.walker.requestOrigin_Completed::Data            0                       # Table walker requests started/completed, data/inst
system.cpu.dtb.walker.requestOrigin_Completed::Inst            0                       # Table walker requests started/completed, data/inst
system.cpu.dtb.walker.requestOrigin_Completed::total            0                       # Table walker requests started/completed, data/inst
system.cpu.dtb.walker.requestOrigin::total            0                       # Table walker requests started/completed, data/inst
system.cpu.dtb.walker.power_state.pwrStateResidencyTicks::UNDEFINED 117806615000                       # Cumulative time (in ticks) in various power states
system.cpu.fetch2.intInstructions            48927264                       # Number of integer instructions successfully decoded
system.cpu.fetch2.fpInstructions                    0                       # Number of floating point instructions successfully decoded
system.cpu.fetch2.vecInstructions                   0                       # Number of SIMD instructions successfully decoded
system.cpu.fetch2.loadInstructions           40583125                       # Number of memory load instructions successfully decoded
system.cpu.fetch2.storeInstructions           6266734                       # Number of memory store instructions successfully decoded
system.cpu.fetch2.amoInstructions                   0                       # Number of memory atomic instructions successfully decoded
system.cpu.icache.demand_hits::.cpu.inst     14265678                       # number of demand (read+write) hits
system.cpu.icache.demand_hits::total         14265678                       # number of demand (read+write) hits
system.cpu.icache.overall_hits::.cpu.inst     14265678                       # number of overall hits
system.cpu.icache.overall_hits::total        14265678                       # number of overall hits
system.cpu.icache.demand_misses::.cpu.inst         5873                       # number of demand (read+write) misses
system.cpu.icache.demand_misses::total           5873                       # number of demand (read+write) misses
system.cpu.icache.overall_misses::.cpu.inst         5873                       # number of overall misses
system.cpu.icache.overall_misses::total          5873                       # number of overall misses
system.cpu.icache.demand_miss_latency::.cpu.inst    215570000                       # number of demand (read+write) miss cycles
system.cpu.icache.demand_miss_latency::total    215570000                       # number of demand (read+write) miss cycles
system.cpu.icache.overall_miss_latency::.cpu.inst    215570000                       # number of overall miss cycles
system.cpu.icache.overall_miss_latency::total    215570000                       # number of overall miss cycles
system.cpu.icache.demand_accesses::.cpu.inst     14271551                       # number of demand (read+write) accesses
system.cpu.icache.demand_accesses::total     14271551                       # number of demand (read+write) accesses
system.cpu.icache.overall_accesses::.cpu.inst     14271551                       # number of overall (read+write) accesses
system.cpu.icache.overall_accesses::total     14271551                       # number of overall (read+write) accesses
system.cpu.icache.demand_miss_rate::.cpu.inst     0.000412                       # miss rate for demand accesses
system.cpu.icache.demand_miss_rate::total     0.000412                       # miss rate for demand accesses
system.cpu.icache.overall_miss_rate::.cpu.inst     0.000412                       # miss rate for overall accesses
system.cpu.icache.overall_miss_rate::total     0.000412                       # miss rate for overall accesses
system.cpu.icache.demand_avg_miss_latency::.cpu.inst 36705.261366                       # average overall miss latency
system.cpu.icache.demand_avg_miss_latency::total 36705.261366                       # average overall miss latency
system.cpu.icache.overall_avg_miss_latency::.cpu.inst 36705.261366                       # average overall miss latency
system.cpu.icache.overall_avg_miss_latency::total 36705.261366                       # average overall miss latency
system.cpu.icache.blocked_cycles::no_mshrs            0                       # number of cycles access was blocked
system.cpu.icache.blocked_cycles::no_targets            0                       # number of cycles access was blocked
system.cpu.icache.blocked::no_mshrs                 0                       # number of cycles access was blocked
system.cpu.icache.blocked::no_targets               0                       # number of cycles access was blocked
system.cpu.icache.avg_blocked_cycles::no_mshrs          nan                       # average number of cycles each access was blocked
system.cpu.icache.avg_blocked_cycles::no_targets          nan                       # average number of cycles each access was blocked
system.cpu.icache.writebacks::.writebacks         5633                       # number of writebacks
system.cpu.icache.writebacks::total              5633                       # number of writebacks
system.cpu.icache.demand_mshr_misses::.cpu.inst         5873                       # number of demand (read+write) MSHR misses
system.cpu.icache.demand_mshr_misses::total         5873                       # number of demand (read+write) MSHR misses
system.cpu.icache.overall_mshr_misses::.cpu.inst         5873                       # number of overall MSHR misses
system.cpu.icache.overall_mshr_misses::total         5873                       # number of overall MSHR misses
system.cpu.icache.demand_mshr_miss_latency::.cpu.inst    203824000                       # number of demand (read+write) MSHR miss cycles
system.cpu.icache.demand_mshr_miss_latency::total    203824000                       # number of demand (read+write) MSHR miss cycles
system.cpu.icache.overall_mshr_miss_latency::.cpu.inst    203824000                       # number of overall MSHR miss cycles
system.cpu.icache.overall_mshr_miss_latency::total    203824000                       # number of overall MSHR miss cycles
system.cpu.icache.demand_mshr_miss_rate::.cpu.inst     0.000412                       # mshr miss rate for demand accesses
system.cpu.icache.demand_mshr_miss_rate::total     0.000412                       # mshr miss rate for demand accesses
system.cpu.icache.overall_mshr_miss_rate::.cpu.inst     0.000412                       # mshr miss rate for overall accesses
system.cpu.icache.overall_mshr_miss_rate::total     0.000412                       # mshr miss rate for overall accesses
system.cpu.icache.demand_avg_mshr_miss_latency::.cpu.inst 34705.261366                       # average overall mshr miss latency
system.cpu.icache.demand_avg_mshr_miss_latency::total 34705.261366                       # average overall mshr miss latency
system.cpu.icache.overall_avg_mshr_miss_latency::.cpu.inst 34705.261366                       # average overall mshr miss latency
system.cpu.icache.overall_avg_mshr_miss_latency::total 34705.261366                       # average overall mshr miss latency
system.cpu.icache.replacements                   5633                       # number of replacements
system.cpu.icache.ReadReq_hits::.cpu.inst     14265678                       # number of ReadReq hits
system.cpu.icache.ReadReq_hits::total        14265678                       # number of ReadReq hits
system.cpu.icache.ReadReq_misses::.cpu.inst         5873                       # number of ReadReq misses
system.cpu.icache.ReadReq_misses::total          5873                       # number of ReadReq misses
system.cpu.icache.ReadReq_miss_latency::.cpu.inst    215570000                       # number of ReadReq miss cycles
system.cpu.icache.ReadReq_miss_latency::total    215570000                       # number of ReadReq miss cycles
system.cpu.icache.ReadReq_accesses::.cpu.inst     14271551                       # number of ReadReq accesses(hits+misses)
system.cpu.icache.ReadReq_accesses::total     14271551                       # number of ReadReq accesses(hits+misses)
system.cpu.icache.ReadReq_miss_rate::.cpu.inst     0.000412                       # miss rate for ReadReq accesses
system.cpu.icache.ReadReq_miss_rate::total     0.000412                       # miss rate for ReadReq accesses
system.cpu.icache.ReadReq_avg_miss_latency::.cpu.inst 36705.261366                       # average ReadReq miss latency
system.cpu.icache.ReadReq_avg_miss_latency::total 36705.261366                       # average ReadReq miss latency
system.cpu.icache.ReadReq_mshr_misses::.cpu.inst         5873                       # number of ReadReq MSHR misses
system.cpu.icache.ReadReq_mshr_misses::total         5873                       # number of ReadReq MSHR misses
system.cpu.icache.ReadReq_mshr_miss_latency::.cpu.inst    203824000                       # number of ReadReq MSHR miss cycles
system.cpu.icache.ReadReq_mshr_miss_latency::total    203824000                       # number of ReadReq MSHR miss cycles
system.cpu.icache.ReadReq_mshr_miss_rate::.cpu.inst     0.000412                       # mshr miss rate for ReadReq accesses
system.cpu.icache.ReadReq_mshr_miss_rate::total     0.000412                       # mshr miss rate for ReadReq accesses
system.cpu.icache.ReadReq_avg_mshr_miss_latency::.cpu.inst 34705.261366                       # average ReadReq mshr miss latency
system.cpu.icache.ReadReq_avg_mshr_miss_latency::total 34705.261366                       # average ReadReq mshr miss latency
system.cpu.icache.power_state.pwrStateResidencyTicks::UNDEFINED 117806615000                       # Cumulative time (in ticks) in various power states
system.cpu.icache.tags.tagsinuse           239.822237                       # Cycle average of tags in use
system.cpu.icache.tags.total_refs            14271551                       # Total number of references to valid blocks.
system.cpu.icache.tags.sampled_refs              5873                       # Sample count of references to valid blocks.
system.cpu.icache.tags.avg_refs           2430.027414                       # Average number of references to valid blocks.
system.cpu.icache.tags.warmup_cycle            123000                       # Cycle when the warmup percentage was hit.
system.cpu.icache.tags.occ_blocks::.cpu.inst   239.822237                       # Average occupied blocks per requestor
system.cpu.icache.tags.occ_percent::.cpu.inst     0.936806                       # Average percentage of cache occupancy
system.cpu.icache.tags.occ_percent::total     0.936806                       # Average percentage of cache occupancy
system.cpu.icache.tags.occ_task_id_blocks::1024          240                       # Occupied blocks per task id
system.cpu.icache.tags.age_task_id_blocks_1024::2            4                       # Occupied blocks per task id
system.cpu.icache.tags.age_task_id_blocks_1024::3            2                       # Occupied blocks per task id
system.cpu.icache.tags.age_task_id_blocks_1024::4          234                       # Occupied blocks per task id
system.cpu.icache.tags.occ_task_id_percent::1024     0.937500                       # Percentage of cache occupancy per task id
system.cpu.icache.tags.tag_accesses          14277424                       # Number of tag accesses
system.cpu.icache.tags.data_accesses         14277424                       # Number of data accesses
system.cpu.icache.tags.power_state.pwrStateResidencyTicks::UNDEFINED 117806615000                       # Cumulative time (in ticks) in various power states
system.cpu.itb.instHits                             0                       # ITB inst hits
system.cpu.itb.instMisses                           0                       # ITB inst misses
system.cpu.itb.readHits                             0                       # DTB read hits
system.cpu.itb.readMisses                           0                       # DTB read misses
system.cpu.itb.writeHits                            0                       # DTB write hits
system.cpu.itb.writeMisses                          0                       # DTB write misses
system.cpu.itb.inserts                              0                       # Number of times an entry is inserted into the TLB
system.cpu.itb.flushTlb                             0                       # Number of times complete TLB was flushed
system.cpu.itb.flushTlbMva                          0                       # Number of times TLB was flushed by MVA
system.cpu.itb.flushTlbMvaAsid                      0                       # Number of times TLB was flushed by MVA & ASID
system.cpu.itb.flushTlbAsid                         0                       # Number of times TLB was flushed by ASID
system.cpu.itb.flushedEntries                       0                       # Number of entries that have been flushed from TLB
system.cpu.itb.alignFaults                          0                       # Number of TLB faults due to alignment restrictions
system.cpu.itb.prefetchFaults                       0                       # Number of TLB faults due to prefetch
system.cpu.itb.domainFaults                         0                       # Number of TLB faults due to domain restrictions
system.cpu.itb.permsFaults                          0                       # Number of TLB faults due to permissions restrictions
system.cpu.itb.readAccesses                         0                       # DTB read accesses
system.cpu.itb.writeAccesses                        0                       # DTB write accesses
system.cpu.itb.instAccesses                         0                       # ITB inst accesses
system.cpu.itb.hits                                 0                       # Total TLB (inst and data) hits
system.cpu.itb.misses                               0                       # Total TLB (inst and data) misses
system.cpu.itb.accesses                             0                       # Total TLB (inst and data) accesses
system.cpu.itb.stage2_mmu.stage2_tlb.instHits            0                       # ITB inst hits
system.cpu.itb.stage2_mmu.stage2_tlb.instMisses            0                       # ITB inst misses
system.cpu.itb.stage2_mmu.stage2_tlb.readHits            0                       # DTB read hits
system.cpu.itb.stage2_mmu.stage2_tlb.readMisses            0                       # DTB read misses
system.cpu.itb.stage2_mmu.stage2_tlb.writeHits            0                       # DTB write hits
system.cpu.itb.stage2_mmu.stage2_tlb.writeMisses            0                       # DTB write misses
system.cpu.itb.stage2_mmu.stage2_tlb.inserts            0                       # Number of times an entry is inserted into the TLB
system.cpu.itb.stage2_mmu.stage2_tlb.flushTlb            0                       # Number of times complete TLB was flushed
system.cpu.itb.stage2_mmu.stage2_tlb.flushTlbMva            0                       # Number of times TLB was flushed by MVA
system.cpu.itb.stage2_mmu.stage2_tlb.flushTlbMvaAsid            0                       # Number of times TLB was flushed by MVA & ASID
system.cpu.itb.stage2_mmu.stage2_tlb.flushTlbAsid            0                       # Number of times TLB was flushed by ASID
system.cpu.itb.stage2_mmu.stage2_tlb.flushedEntries            0                       # Number of entries that have been flushed from TLB
system.cpu.itb.stage2_mmu.stage2_tlb.alignFaults            0                       # Number of TLB faults due to alignment restrictions
system.cpu.itb.stage2_mmu.stage2_tlb.prefetchFaults            0                       # Number of TLB faults due to prefetch
system.cpu.itb.stage2_mmu.stage2_tlb.domainFaults            0                       # Number of TLB faults due to domain restrictions
system.cpu.itb.stage2_mmu.stage2_tlb.permsFaults            0                       # Number of TLB faults due to permissions restrictions
system.cpu.itb.stage2_mmu.stage2_tlb.readAccesses            0                       # DTB read accesses
system.cpu.itb.stage2_mmu.stage2_tlb.writeAccesses            0                       # DTB write accesses
system.cpu.itb.stage2_mmu.stage2_tlb.instAccesses            0                       # ITB inst accesses
system.cpu.itb.stage2_mmu.stage2_tlb.hits            0                       # Total TLB (inst and data) hits
system.cpu.itb.stage2_mmu.stage2_tlb.misses            0                       # Total TLB (inst and data) misses
system.cpu.itb.stage2_mmu.stage2_tlb.accesses            0                       # Total TLB (inst and data) accesses
system.cpu.itb.stage2_mmu.stage2_tlb.walker.walks            0                       # Table walker walks requested
system.cpu.itb.stage2_mmu.stage2_tlb.walker.requestOrigin_Requested::Data            0                       # Table walker requests started/completed, data/inst
system.cpu.itb.stage2_mmu.stage2_tlb.walker.requestOrigin_Requested::Inst            0                       # Table walker requests started/completed, data/inst
system.cpu.itb.stage2_mmu.stage2_tlb.walker.requestOrigin_Requested::total            0                       # Table walker requests started/completed, data/inst
system.cpu.itb.stage2_mmu.stage2_tlb.walker.requestOrigin_Completed::Data            0                       # Table walker requests started/completed, data/inst
system.cpu.itb.stage2_mmu.stage2_tlb.walker.requestOrigin_Completed::Inst            0                       # Table walker requests started/completed, data/inst
system.cpu.itb.stage2_mmu.stage2_tlb.walker.requestOrigin_Completed::total            0                       # Table walker requests started/completed, data/inst
system.cpu.itb.stage2_mmu.stage2_tlb.walker.requestOrigin::total            0                       # Table walker requests started/completed, data/inst
system.cpu.itb.stage2_mmu.stage2_tlb.walker.power_state.pwrStateResidencyTicks::UNDEFINED 117806615000                       # Cumulative time (in ticks) in various power states
system.cpu.itb.walker.walks                         0                       # Table walker walks requested
system.cpu.itb.walker.requestOrigin_Requested::Data            0                       # Table walker requests started/completed, data/inst
system.cpu.itb.walker.requestOrigin_Requested::Inst            0                       # Table walker requests started/completed, data/inst
system.cpu.itb.walker.requestOrigin_Requested::total            0                       # Table walker requests started/completed, data/inst
system.cpu.itb.walker.requestOrigin_Completed::Data            0                       # Table walker requests started/completed, data/inst
system.cpu.itb.walker.requestOrigin_Completed::Inst            0                       # Table walker requests started/completed, data/inst
system.cpu.itb.walker.requestOrigin_Completed::total            0                       # Table walker requests started/completed, data/inst
system.cpu.itb.walker.requestOrigin::total            0                       # Table walker requests started/completed, data/inst
system.cpu.itb.walker.power_state.pwrStateResidencyTicks::UNDEFINED 117806615000                       # Cumulative time (in ticks) in various power states
system.cpu.power_state.pwrStateResidencyTicks::ON 117806615000                       # Cumulative time (in ticks) in various power states
system.cpu.thread_0.numInsts                100000000                       # Number of Instructions committed
system.cpu.thread_0.numOps                  101102842                       # Number of Ops committed
system.cpu.thread_0.numMemRefs                      0                       # Number of Memory References
system.cpu_clk_domain.clock                      1000                       # Clock period in ticks
system.cpu_voltage_domain.voltage                   1                       # Voltage in Volts
system.l2.demand_hits::.cpu.inst                 5369                       # number of demand (read+write) hits
system.l2.demand_hits::.cpu.data                17914                       # number of demand (read+write) hits
system.l2.demand_hits::total                    23283                       # number of demand (read+write) hits
system.l2.overall_hits::.cpu.inst                5369                       # number of overall hits
system.l2.overall_hits::.cpu.data               17914                       # number of overall hits
system.l2.overall_hits::total                   23283                       # number of overall hits
system.l2.demand_misses::.cpu.inst                504                       # number of demand (read+write) misses
system.l2.demand_misses::.cpu.data               1117                       # number of demand (read+write) misses
system.l2.demand_misses::total                   1621                       # number of demand (read+write) misses
system.l2.overall_misses::.cpu.inst               504                       # number of overall misses
system.l2.overall_misses::.cpu.data              1117                       # number of overall misses
system.l2.overall_misses::total                  1621                       # number of overall misses
system.l2.demand_miss_latency::.cpu.inst     58807000                       # number of demand (read+write) miss cycles
system.l2.demand_miss_latency::.cpu.data    132347000                       # number of demand (read+write) miss cycles
system.l2.demand_miss_latency::total        191154000                       # number of demand (read+write) miss cycles
system.l2.overall_miss_latency::.cpu.inst     58807000                       # number of overall miss cycles
system.l2.overall_miss_latency::.cpu.data    132347000                       # number of overall miss cycles
system.l2.overall_miss_latency::total       191154000                       # number of overall miss cycles
system.l2.demand_accesses::.cpu.inst             5873                       # number of demand (read+write) accesses
system.l2.demand_accesses::.cpu.data            19031                       # number of demand (read+write) accesses
system.l2.demand_accesses::total                24904                       # number of demand (read+write) accesses
system.l2.overall_accesses::.cpu.inst            5873                       # number of overall (read+write) accesses
system.l2.overall_accesses::.cpu.data           19031                       # number of overall (read+write) accesses
system.l2.overall_accesses::total               24904                       # number of overall (read+write) accesses
system.l2.demand_miss_rate::.cpu.inst        0.085816                       # miss rate for demand accesses
system.l2.demand_miss_rate::.cpu.data        0.058694                       # miss rate for demand accesses
system.l2.demand_miss_rate::total            0.065090                       # miss rate for demand accesses
system.l2.overall_miss_rate::.cpu.inst       0.085816                       # miss rate for overall accesses
system.l2.overall_miss_rate::.cpu.data       0.058694                       # miss rate for overall accesses
system.l2.overall_miss_rate::total           0.065090                       # miss rate for overall accesses
system.l2.demand_avg_miss_latency::.cpu.inst 116680.555556                       # average overall miss latency
system.l2.demand_avg_miss_latency::.cpu.data 118484.333035                       # average overall miss latency
system.l2.demand_avg_miss_latency::total 117923.504010                       # average overall miss latency
system.l2.overall_avg_miss_latency::.cpu.inst 116680.555556                       # average overall miss latency
system.l2.overall_avg_miss_latency::.cpu.data 118484.333035                       # average overall miss latency
system.l2.overall_avg_miss_latency::total 117923.504010                       # average overall miss latency
system.l2.blocked_cycles::no_mshrs                  0                       # number of cycles access was blocked
system.l2.blocked_cycles::no_targets                0                       # number of cycles access was blocked
system.l2.blocked::no_mshrs                         0                       # number of cycles access was blocked
system.l2.blocked::no_targets                       0                       # number of cycles access was blocked
system.l2.avg_blocked_cycles::no_mshrs            nan                       # average number of cycles each access was blocked
system.l2.avg_blocked_cycles::no_targets          nan                       # average number of cycles each access was blocked
system.l2.demand_mshr_hits::.cpu.data               7                       # number of demand (read+write) MSHR hits
system.l2.demand_mshr_hits::total                   7                       # number of demand (read+write) MSHR hits
system.l2.overall_mshr_hits::.cpu.data              7                       # number of overall MSHR hits
system.l2.overall_mshr_hits::total                  7                       # number of overall MSHR hits
system.l2.demand_mshr_misses::.cpu.inst           504                       # number of demand (read+write) MSHR misses
system.l2.demand_mshr_misses::.cpu.data          1110                       # number of demand (read+write) MSHR misses
system.l2.demand_mshr_misses::total              1614                       # number of demand (read+write) MSHR misses
system.l2.overall_mshr_misses::.cpu.inst          504                       # number of overall MSHR misses
system.l2.overall_mshr_misses::.cpu.data         1110                       # number of overall MSHR misses
system.l2.overall_mshr_misses::total             1614                       # number of overall MSHR misses
system.l2.demand_mshr_miss_latency::.cpu.inst     48727000                       # number of demand (read+write) MSHR miss cycles
system.l2.demand_mshr_miss_latency::.cpu.data    109178000                       # number of demand (read+write) MSHR miss cycles
system.l2.demand_mshr_miss_latency::total    157905000                       # number of demand (read+write) MSHR miss cycles
system.l2.overall_mshr_miss_latency::.cpu.inst     48727000                       # number of overall MSHR miss cycles
system.l2.overall_mshr_miss_latency::.cpu.data    109178000                       # number of overall MSHR miss cycles
system.l2.overall_mshr_miss_latency::total    157905000                       # number of overall MSHR miss cycles
system.l2.demand_mshr_miss_rate::.cpu.inst     0.085816                       # mshr miss rate for demand accesses
system.l2.demand_mshr_miss_rate::.cpu.data     0.058326                       # mshr miss rate for demand accesses
system.l2.demand_mshr_miss_rate::total       0.064809                       # mshr miss rate for demand accesses
system.l2.overall_mshr_miss_rate::.cpu.inst     0.085816                       # mshr miss rate for overall accesses
system.l2.overall_mshr_miss_rate::.cpu.data     0.058326                       # mshr miss rate for overall accesses
system.l2.overall_mshr_miss_rate::total      0.064809                       # mshr miss rate for overall accesses
system.l2.demand_avg_mshr_miss_latency::.cpu.inst 96680.555556                       # average overall mshr miss latency
system.l2.demand_avg_mshr_miss_latency::.cpu.data 98358.558559                       # average overall mshr miss latency
system.l2.demand_avg_mshr_miss_latency::total 97834.572491                       # average overall mshr miss latency
system.l2.overall_avg_mshr_miss_latency::.cpu.inst 96680.555556                       # average overall mshr miss latency
system.l2.overall_avg_mshr_miss_latency::.cpu.data 98358.558559                       # average overall mshr miss latency
system.l2.overall_avg_mshr_miss_latency::total 97834.572491                       # average overall mshr miss latency
system.l2.replacements                              0                       # number of replacements
system.l2.WritebackDirty_hits::.writebacks        17738                       # number of WritebackDirty hits
system.l2.WritebackDirty_hits::total            17738                       # number of WritebackDirty hits
system.l2.WritebackDirty_accesses::.writebacks        17738                       # number of WritebackDirty accesses(hits+misses)
system.l2.WritebackDirty_accesses::total        17738                       # number of WritebackDirty accesses(hits+misses)
system.l2.WritebackClean_hits::.writebacks         4956                       # number of WritebackClean hits
system.l2.WritebackClean_hits::total             4956                       # number of WritebackClean hits
system.l2.WritebackClean_accesses::.writebacks         4956                       # number of WritebackClean accesses(hits+misses)
system.l2.WritebackClean_accesses::total         4956                       # number of WritebackClean accesses(hits+misses)
system.l2.ReadExReq_hits::.cpu.data             13616                       # number of ReadExReq hits
system.l2.ReadExReq_hits::total                 13616                       # number of ReadExReq hits
system.l2.ReadExReq_misses::.cpu.data             936                       # number of ReadExReq misses
system.l2.ReadExReq_misses::total                 936                       # number of ReadExReq misses
system.l2.ReadExReq_miss_latency::.cpu.data    110490000                       # number of ReadExReq miss cycles
system.l2.ReadExReq_miss_latency::total     110490000                       # number of ReadExReq miss cycles
system.l2.ReadExReq_accesses::.cpu.data         14552                       # number of ReadExReq accesses(hits+misses)
system.l2.ReadExReq_accesses::total             14552                       # number of ReadExReq accesses(hits+misses)
system.l2.ReadExReq_miss_rate::.cpu.data     0.064321                       # miss rate for ReadExReq accesses
system.l2.ReadExReq_miss_rate::total         0.064321                       # miss rate for ReadExReq accesses
system.l2.ReadExReq_avg_miss_latency::.cpu.data 118044.871795                       # average ReadExReq miss latency
system.l2.ReadExReq_avg_miss_latency::total 118044.871795                       # average ReadExReq miss latency
system.l2.ReadExReq_mshr_misses::.cpu.data          936                       # number of ReadExReq MSHR misses
system.l2.ReadExReq_mshr_misses::total            936                       # number of ReadExReq MSHR misses
system.l2.ReadExReq_mshr_miss_latency::.cpu.data     91770000                       # number of ReadExReq MSHR miss cycles
system.l2.ReadExReq_mshr_miss_latency::total     91770000                       # number of ReadExReq MSHR miss cycles
system.l2.ReadExReq_mshr_miss_rate::.cpu.data     0.064321                       # mshr miss rate for ReadExReq accesses
system.l2.ReadExReq_mshr_miss_rate::total     0.064321                       # mshr miss rate for ReadExReq accesses
system.l2.ReadExReq_avg_mshr_miss_latency::.cpu.data 98044.871795                       # average ReadExReq mshr miss latency
system.l2.ReadExReq_avg_mshr_miss_latency::total 98044.871795                       # average ReadExReq mshr miss latency
system.l2.ReadCleanReq_hits::.cpu.inst           5369                       # number of ReadCleanReq hits
system.l2.ReadCleanReq_hits::total               5369                       # number of ReadCleanReq hits
system.l2.ReadCleanReq_misses::.cpu.inst          504                       # number of ReadCleanReq misses
system.l2.ReadCleanReq_misses::total              504                       # number of ReadCleanReq misses
system.l2.ReadCleanReq_miss_latency::.cpu.inst     58807000                       # number of ReadCleanReq miss cycles
system.l2.ReadCleanReq_miss_latency::total     58807000                       # number of ReadCleanReq miss cycles
system.l2.ReadCleanReq_accesses::.cpu.inst         5873                       # number of ReadCleanReq accesses(hits+misses)
system.l2.ReadCleanReq_accesses::total           5873                       # number of ReadCleanReq accesses(hits+misses)
system.l2.ReadCleanReq_miss_rate::.cpu.inst     0.085816                       # miss rate for ReadCleanReq accesses
system.l2.ReadCleanReq_miss_rate::total      0.085816                       # miss rate for ReadCleanReq accesses
system.l2.ReadCleanReq_avg_miss_latency::.cpu.inst 116680.555556                       # average ReadCleanReq miss latency
system.l2.ReadCleanReq_avg_miss_latency::total 116680.555556                       # average ReadCleanReq miss latency
system.l2.ReadCleanReq_mshr_misses::.cpu.inst          504                       # number of ReadCleanReq MSHR misses
system.l2.ReadCleanReq_mshr_misses::total          504                       # number of ReadCleanReq MSHR misses
system.l2.ReadCleanReq_mshr_miss_latency::.cpu.inst     48727000                       # number of ReadCleanReq MSHR miss cycles
system.l2.ReadCleanReq_mshr_miss_latency::total     48727000                       # number of ReadCleanReq MSHR miss cycles
system.l2.ReadCleanReq_mshr_miss_rate::.cpu.inst     0.085816                       # mshr miss rate for ReadCleanReq accesses
system.l2.ReadCleanReq_mshr_miss_rate::total     0.085816                       # mshr miss rate for ReadCleanReq accesses
system.l2.ReadCleanReq_avg_mshr_miss_latency::.cpu.inst 96680.555556                       # average ReadCleanReq mshr miss latency
system.l2.ReadCleanReq_avg_mshr_miss_latency::total 96680.555556                       # average ReadCleanReq mshr miss latency
system.l2.ReadSharedReq_hits::.cpu.data          4298                       # number of ReadSharedReq hits
system.l2.ReadSharedReq_hits::total              4298                       # number of ReadSharedReq hits
system.l2.ReadSharedReq_misses::.cpu.data          181                       # number of ReadSharedReq misses
system.l2.ReadSharedReq_misses::total             181                       # number of ReadSharedReq misses
system.l2.ReadSharedReq_miss_latency::.cpu.data     21857000                       # number of ReadSharedReq miss cycles
system.l2.ReadSharedReq_miss_latency::total     21857000                       # number of ReadSharedReq miss cycles
system.l2.ReadSharedReq_accesses::.cpu.data         4479                       # number of ReadSharedReq accesses(hits+misses)
system.l2.ReadSharedReq_accesses::total          4479                       # number of ReadSharedReq accesses(hits+misses)
system.l2.ReadSharedReq_miss_rate::.cpu.data     0.040411                       # miss rate for ReadSharedReq accesses
system.l2.ReadSharedReq_miss_rate::total     0.040411                       # miss rate for ReadSharedReq accesses
system.l2.ReadSharedReq_avg_miss_latency::.cpu.data 120756.906077                       # average ReadSharedReq miss latency
system.l2.ReadSharedReq_avg_miss_latency::total 120756.906077                       # average ReadSharedReq miss latency
system.l2.ReadSharedReq_mshr_hits::.cpu.data            7                       # number of ReadSharedReq MSHR hits
system.l2.ReadSharedReq_mshr_hits::total            7                       # number of ReadSharedReq MSHR hits
system.l2.ReadSharedReq_mshr_misses::.cpu.data          174                       # number of ReadSharedReq MSHR misses
system.l2.ReadSharedReq_mshr_misses::total          174                       # number of ReadSharedReq MSHR misses
system.l2.ReadSharedReq_mshr_miss_latency::.cpu.data     17408000                       # number of ReadSharedReq MSHR miss cycles
system.l2.ReadSharedReq_mshr_miss_latency::total     17408000                       # number of ReadSharedReq MSHR miss cycles
system.l2.ReadSharedReq_mshr_miss_rate::.cpu.data     0.038848                       # mshr miss rate for ReadSharedReq accesses
system.l2.ReadSharedReq_mshr_miss_rate::total     0.038848                       # mshr miss rate for ReadSharedReq accesses
system.l2.ReadSharedReq_avg_mshr_miss_latency::.cpu.data 100045.977011                       # average ReadSharedReq mshr miss latency
system.l2.ReadSharedReq_avg_mshr_miss_latency::total 100045.977011                       # average ReadSharedReq mshr miss latency
system.l2.power_state.pwrStateResidencyTicks::UNDEFINED 117806615000                       # Cumulative time (in ticks) in various power states
system.l2.tags.tagsinuse                  1565.260950                       # Cycle average of tags in use
system.l2.tags.total_refs                       48029                       # Total number of references to valid blocks.
system.l2.tags.sampled_refs                      1614                       # Sample count of references to valid blocks.
system.l2.tags.avg_refs                     29.757745                       # Average number of references to valid blocks.
system.l2.tags.warmup_cycle                    102000                       # Cycle when the warmup percentage was hit.
system.l2.tags.occ_blocks::.cpu.inst       502.785580                       # Average occupied blocks per requestor
system.l2.tags.occ_blocks::.cpu.data      1062.475369                       # Average occupied blocks per requestor
system.l2.tags.occ_percent::.cpu.inst        0.122750                       # Average percentage of cache occupancy
system.l2.tags.occ_percent::.cpu.data        0.259393                       # Average percentage of cache occupancy
system.l2.tags.occ_percent::total            0.382144                       # Average percentage of cache occupancy
system.l2.tags.occ_task_id_blocks::1024          1614                       # Occupied blocks per task id
system.l2.tags.age_task_id_blocks_1024::4         1614                       # Occupied blocks per task id
system.l2.tags.occ_task_id_percent::1024     0.394043                       # Percentage of cache occupancy per task id
system.l2.tags.tag_accesses                     49650                       # Number of tag accesses
system.l2.tags.data_accesses                    49650                       # Number of data accesses
system.l2.tags.power_state.pwrStateResidencyTicks::UNDEFINED 117806615000                       # Cumulative time (in ticks) in various power states
system.mem_ctrls.avgPriority_.cpu.inst::samples      2016.00                       # Average QoS priority value for accepted requests
system.mem_ctrls.avgPriority_.cpu.data::samples      4440.00                       # Average QoS priority value for accepted requests
system.mem_ctrls.priorityMinLatency      0.000000018750                       # per QoS priority minimum request to response latency (s)
system.mem_ctrls.priorityMaxLatency      0.000000687500                       # per QoS priority maximum request to response latency (s)
system.mem_ctrls.numReadWriteTurnArounds            0                       # Number of turnarounds from READ to WRITE
system.mem_ctrls.numWriteReadTurnArounds            0                       # Number of turnarounds from WRITE to READ
system.mem_ctrls.numStayReadState               38291                       # Number of times bus staying in READ state
system.mem_ctrls.numStayWriteState                  0                       # Number of times bus staying in WRITE state
system.mem_ctrls.readReqs                        1614                       # Number of read requests accepted
system.mem_ctrls.writeReqs                          0                       # Number of write requests accepted
system.mem_ctrls.readBursts                      6456                       # Number of controller read bursts, including those serviced by the write queue
system.mem_ctrls.writeBursts                        0                       # Number of controller write bursts, including those merged in the write queue
system.mem_ctrls.servicedByWrQ                      0                       # Number of controller read bursts serviced by the write queue
system.mem_ctrls.mergedWrBursts                     0                       # Number of controller write bursts merged with an existing one
system.mem_ctrls.neitherReadNorWriteReqs            0                       # Number of requests that are neither read nor write
system.mem_ctrls.avgRdQLen                       4.01                       # Average read queue length when enqueuing
system.mem_ctrls.avgWrQLen                       0.00                       # Average write queue length when enqueuing
system.mem_ctrls.numRdRetry                         0                       # Number of times read queue was full causing retry
system.mem_ctrls.numWrRetry                         0                       # Number of times write queue was full causing retry
system.mem_ctrls.readPktSize::0                     0                       # Read request sizes (log2)
system.mem_ctrls.readPktSize::1                     0                       # Read request sizes (log2)
system.mem_ctrls.readPktSize::2                     0                       # Read request sizes (log2)
system.mem_ctrls.readPktSize::3                     0                       # Read request sizes (log2)
system.mem_ctrls.readPktSize::4                     0                       # Read request sizes (log2)
system.mem_ctrls.readPktSize::5                     0                       # Read request sizes (log2)
system.mem_ctrls.readPktSize::6                  6456                       # Read request sizes (log2)
system.mem_ctrls.readPktSize::7                     0                       # Read request sizes (log2)
system.mem_ctrls.readPktSize::8                     0                       # Read request sizes (log2)
system.mem_ctrls.writePktSize::0                    0                       # Write request sizes (log2)
system.mem_ctrls.writePktSize::1                    0                       # Write request sizes (log2)
system.mem_ctrls.writePktSize::2                    0                       # Write request sizes (log2)
system.mem_ctrls.writePktSize::3                    0                       # Write request sizes (log2)
system.mem_ctrls.writePktSize::4                    0                       # Write request sizes (log2)
system.mem_ctrls.writePktSize::5                    0                       # Write request sizes (log2)
system.mem_ctrls.writePktSize::6                    0                       # Write request sizes (log2)
system.mem_ctrls.writePktSize::7                    0                       # Write request sizes (log2)
system.mem_ctrls.writePktSize::8                    0                       # Write request sizes (log2)
system.mem_ctrls.rdQLenPdf::0                    1540                       # What read queue length does an incoming req see
system.mem_ctrls.rdQLenPdf::1                    1540                       # What read queue length does an incoming req see
system.mem_ctrls.rdQLenPdf::2                    1544                       # What read queue length does an incoming req see
system.mem_ctrls.rdQLenPdf::3                    1549                       # What read queue length does an incoming req see
system.mem_ctrls.rdQLenPdf::4                      73                       # What read queue length does an incoming req see
system.mem_ctrls.rdQLenPdf::5                      73                       # What read queue length does an incoming req see
system.mem_ctrls.rdQLenPdf::6                      69                       # What read queue length does an incoming req see
system.mem_ctrls.rdQLenPdf::7                      64                       # What read queue length does an incoming req see
system.mem_ctrls.rdQLenPdf::8                       1                       # What read queue length does an incoming req see
system.mem_ctrls.rdQLenPdf::9                       1                       # What read queue length does an incoming req see
system.mem_ctrls.rdQLenPdf::10                      1                       # What read queue length does an incoming req see
system.mem_ctrls.rdQLenPdf::11                      1                       # What read queue length does an incoming req see
system.mem_ctrls.rdQLenPdf::12                      0                       # What read queue length does an incoming req see
system.mem_ctrls.rdQLenPdf::13                      0                       # What read queue length does an incoming req see
[...]
system.mem_ctrls.dram.num_reads::.cpu.data         1110                       # Number of read requests responded to by this memory
system.mem_ctrls.dram.num_reads::total           1614                       # Number of read requests responded to by this memory
system.mem_ctrls.dram.bw_read::.cpu.inst      1095219                       # Total read bandwidth from this memory (bytes/s)
system.mem_ctrls.dram.bw_read::.cpu.data      2412089                       # Total read bandwidth from this memory (bytes/s)
system.mem_ctrls.dram.bw_read::total          3507307                       # Total read bandwidth from this memory (bytes/s)
system.mem_ctrls.dram.bw_inst_read::.cpu.inst      1095219                       # Instruction read bandwidth from this memory (bytes/s)
system.mem_ctrls.dram.bw_inst_read::total      1095219                       # Instruction read bandwidth from this memory (bytes/s)
system.mem_ctrls.dram.bw_total::.cpu.inst      1095219                       # Total bandwidth to/from this memory (bytes/s)
system.mem_ctrls.dram.bw_total::.cpu.data      2412089                       # Total bandwidth to/from this memory (bytes/s)
system.mem_ctrls.dram.bw_total::total         3507307                       # Total bandwidth to/from this memory (bytes/s)
system.mem_ctrls.dram.readBursts                 6456                       # Number of DRAM read bursts
system.mem_ctrls.dram.writeBursts                   0                       # Number of DRAM write bursts
system.mem_ctrls.dram.perBankRdBursts::0          336                       # Per bank write bursts
system.mem_ctrls.dram.perBankRdBursts::1          336                       # Per bank write bursts
system.mem_ctrls.dram.perBankRdBursts::2          308                       # Per bank write bursts
system.mem_ctrls.dram.perBankRdBursts::3          480                       # Per bank write bursts
system.mem_ctrls.dram.perBankRdBursts::4          484                       # Per bank write bursts
system.mem_ctrls.dram.perBankRdBursts::5          404                       # Per bank write bursts
system.mem_ctrls.dram.perBankRdBursts::6          424                       # Per bank write bursts
system.mem_ctrls.dram.perBankRdBursts::7          456                       # Per bank write bursts
system.mem_ctrls.dram.perBankRdBursts::8          408                       # Per bank write bursts
system.mem_ctrls.dram.perBankRdBursts::9          368                       # Per bank write bursts
system.mem_ctrls.dram.perBankRdBursts::10          504                       # Per bank write bursts
system.mem_ctrls.dram.perBankRdBursts::11          348                       # Per bank write bursts
system.mem_ctrls.dram.perBankRdBursts::12          328                       # Per bank write bursts
system.mem_ctrls.dram.perBankRdBursts::13          404                       # Per bank write bursts
system.mem_ctrls.dram.perBankRdBursts::14          504                       # Per bank write bursts
system.mem_ctrls.dram.perBankRdBursts::15          364                       # Per bank write bursts
system.mem_ctrls.dram.perBankWrBursts::0            0                       # Per bank write bursts
system.mem_ctrls.dram.perBankWrBursts::1            0                       # Per bank write bursts
system.mem_ctrls.dram.perBankWrBursts::2            0                       # Per bank write bursts
system.mem_ctrls.dram.perBankWrBursts::3            0                       # Per bank write bursts
system.mem_ctrls.dram.perBankWrBursts::4            0                       # Per bank write bursts
system.mem_ctrls.dram.perBankWrBursts::5            0                       # Per bank write bursts
system.mem_ctrls.dram.perBankWrBursts::6            0                       # Per bank write bursts
system.mem_ctrls.dram.perBankWrBursts::7            0                       # Per bank write bursts
system.mem_ctrls.dram.perBankWrBursts::8            0                       # Per bank write bursts
system.mem_ctrls.dram.perBankWrBursts::9            0                       # Per bank write bursts
system.mem_ctrls.dram.perBankWrBursts::10            0                       # Per bank write bursts
system.mem_ctrls.dram.perBankWrBursts::11            0                       # Per bank write bursts
system.mem_ctrls.dram.perBankWrBursts::12            0                       # Per bank write bursts
system.mem_ctrls.dram.perBankWrBursts::13            0                       # Per bank write bursts
system.mem_ctrls.dram.perBankWrBursts::14            0                       # Per bank write bursts
system.mem_ctrls.dram.perBankWrBursts::15            0                       # Per bank write bursts
system.mem_ctrls.dram.totQLat               130074250                       # Total ticks spent queuing
system.mem_ctrls.dram.totBusLat              32280000                       # Total ticks spent in databus transfers
system.mem_ctrls.dram.totMemAccLat          251124250                       # Total ticks spent from burst creation until serviced by the DRAM
system.mem_ctrls.dram.avgQLat                20147.81                       # Average queueing delay per DRAM burst
system.mem_ctrls.dram.avgBusLat               5000.00                       # Average bus latency per DRAM burst
system.mem_ctrls.dram.avgMemAccLat           38897.81                       # Average memory access latency per DRAM burst
system.mem_ctrls.dram.readRowHits                5607                       # Number of row buffer hits during reads
system.mem_ctrls.dram.writeRowHits                  0                       # Number of row buffer hits during writes
system.mem_ctrls.dram.readRowHitRate            86.85                       # Row buffer hit rate for reads
system.mem_ctrls.dram.writeRowHitRate             nan                       # Row buffer hit rate for writes
system.mem_ctrls.dram.bytesPerActivate::samples          849                       # Bytes accessed per row activation
system.mem_ctrls.dram.bytesPerActivate::mean   486.671378                       # Bytes accessed per row activation
system.mem_ctrls.dram.bytesPerActivate::gmean   406.067903                       # Bytes accessed per row activation
system.mem_ctrls.dram.bytesPerActivate::stdev   309.417662                       # Bytes accessed per row activation
system.mem_ctrls.dram.bytesPerActivate::0-127            1      0.12%      0.12% # Bytes accessed per row activation
system.mem_ctrls.dram.bytesPerActivate::256-383          490     57.71%     57.83% # Bytes accessed per row activation
system.mem_ctrls.dram.bytesPerActivate::384-511            1      0.12%     57.95% # Bytes accessed per row activation
system.mem_ctrls.dram.bytesPerActivate::512-639          122     14.37%     72.32% # Bytes accessed per row activation
system.mem_ctrls.dram.bytesPerActivate::768-895           62      7.30%     79.62% # Bytes accessed per row activation
system.mem_ctrls.dram.bytesPerActivate::1024-1151          173     20.38%    100.00% # Bytes accessed per row activation
system.mem_ctrls.dram.bytesPerActivate::total          849                       # Bytes accessed per row activation
system.mem_ctrls.dram.bytesRead                413184                       # Total number of bytes read from DRAM
system.mem_ctrls.dram.bytesWritten                  0                       # Total number of bytes written to DRAM
system.mem_ctrls.dram.avgRdBW                3.507307                       # Average DRAM read bandwidth in MiBytes/s
system.mem_ctrls.dram.avgWrBW                       0                       # Average DRAM write bandwidth in MiBytes/s
system.mem_ctrls.dram.peakBW                 12800.00                       # Theoretical peak bandwidth in MiByte/s
system.mem_ctrls.dram.busUtil                    0.03                       # Data bus utilization in percentage
system.mem_ctrls.dram.busUtilRead                0.03                       # Data bus utilization in percentage for reads
system.mem_ctrls.dram.busUtilWrite               0.00                       # Data bus utilization in percentage for writes
system.mem_ctrls.dram.pageHitRate               86.85                       # Row buffer hit rate, read and write combined
system.mem_ctrls.dram.power_state.pwrStateResidencyTicks::UNDEFINED 117806615000                       # Cumulative time (in ticks) in various power states
system.mem_ctrls.dram.rank0.actEnergy         3191580                       # Energy for activate commands per rank (pJ)
system.mem_ctrls.dram.rank0.preEnergy         1696365                       # Energy for precharge commands per rank (pJ)
system.mem_ctrls.dram.rank0.readEnergy       23047920                       # Energy for read commands per rank (pJ)
system.mem_ctrls.dram.rank0.writeEnergy             0                       # Energy for write commands per rank (pJ)
system.mem_ctrls.dram.rank0.refreshEnergy 9299503200.000002                       # Energy for refresh commands per rank (pJ)
system.mem_ctrls.dram.rank0.actBackEnergy   2139200880                       # Energy for active background per rank (pJ)
system.mem_ctrls.dram.rank0.preBackEnergy  43436307840                       # Energy for precharge background per rank (pJ)
system.mem_ctrls.dram.rank0.actPowerDownEnergy            0                       # Energy for active power-down per rank (pJ)
system.mem_ctrls.dram.rank0.prePowerDownEnergy            0                       # Energy for precharge power-down per rank (pJ)
system.mem_ctrls.dram.rank0.selfRefreshEnergy            0                       # Energy for self refresh per rank (pJ)
system.mem_ctrls.dram.rank0.totalEnergy   54902947785                       # Total energy per rank (pJ)
system.mem_ctrls.dram.rank0.averagePower   466.042996                       # Core power per rank (mW)
system.mem_ctrls.dram.rank0.totalIdleTime            0                       # Total Idle time Per DRAM Rank
system.mem_ctrls.dram.rank0.pwrStateTime::IDLE 112903692500                       # Time in different power states
system.mem_ctrls.dram.rank0.pwrStateTime::REF   3933800000                       # Time in different power states
system.mem_ctrls.dram.rank0.pwrStateTime::SREF            0                       # Time in different power states
system.mem_ctrls.dram.rank0.pwrStateTime::PRE_PDN            0                       # Time in different power states
system.mem_ctrls.dram.rank0.pwrStateTime::ACT    969122500                       # Time in different power states
system.mem_ctrls.dram.rank0.pwrStateTime::ACT_PDN            0                       # Time in different power states
system.mem_ctrls.dram.rank1.actEnergy         2870280                       # Energy for activate commands per rank (pJ)
system.mem_ctrls.dram.rank1.preEnergy         1525590                       # Energy for precharge commands per rank (pJ)
system.mem_ctrls.dram.rank1.readEnergy       23047920                       # Energy for read commands per rank (pJ)
system.mem_ctrls.dram.rank1.writeEnergy             0                       # Energy for write commands per rank (pJ)
system.mem_ctrls.dram.rank1.refreshEnergy 9299503200.000002                       # Energy for refresh commands per rank (pJ)
system.mem_ctrls.dram.rank1.actBackEnergy   2106492000                       # Energy for active background per rank (pJ)
system.mem_ctrls.dram.rank1.preBackEnergy  43463852160                       # Energy for precharge background per rank (pJ)
system.mem_ctrls.dram.rank1.actPowerDownEnergy            0                       # Energy for active power-down per rank (pJ)
system.mem_ctrls.dram.rank1.prePowerDownEnergy            0                       # Energy for precharge power-down per rank (pJ)
system.mem_ctrls.dram.rank1.selfRefreshEnergy            0                       # Energy for self refresh per rank (pJ)
system.mem_ctrls.dram.rank1.totalEnergy   54897291150                       # Total energy per rank (pJ)
system.mem_ctrls.dram.rank1.averagePower   465.994980                       # Core power per rank (mW)
system.mem_ctrls.dram.rank1.totalIdleTime            0                       # Total Idle time Per DRAM Rank
system.mem_ctrls.dram.rank1.pwrStateTime::IDLE 112975691250                       # Time in different power states
system.mem_ctrls.dram.rank1.pwrStateTime::REF   3933800000                       # Time in different power states
system.mem_ctrls.dram.rank1.pwrStateTime::SREF            0                       # Time in different power states
system.mem_ctrls.dram.rank1.pwrStateTime::PRE_PDN            0                       # Time in different power states
system.mem_ctrls.dram.rank1.pwrStateTime::ACT    897123750                       # Time in different power states
system.mem_ctrls.dram.rank1.pwrStateTime::ACT_PDN            0                       # Time in different power states
system.mem_ctrls.power_state.pwrStateResidencyTicks::UNDEFINED 117806615000                       # Cumulative time (in ticks) in various power states
system.membus.trans_dist::ReadResp                678                       # Transaction distribution
system.membus.trans_dist::ReadExReq               936                       # Transaction distribution
system.membus.trans_dist::ReadExResp              936                       # Transaction distribution
system.membus.trans_dist::ReadSharedReq           678                       # Transaction distribution
system.membus.pkt_count_system.l2.mem_side_port::system.mem_ctrls.port         3228                       # Packet count per connected requestor and responder (bytes)
system.membus.pkt_count::total                   3228                       # Packet count per connected requestor and responder (bytes)
system.membus.pkt_size_system.l2.mem_side_port::system.mem_ctrls.port       413184                       # Cumulative packet size per connected requestor and responder (bytes)
system.membus.pkt_size::total                  413184                       # Cumulative packet size per connected requestor and responder (bytes)
system.membus.snoops                                0                       # Total snoops (count)
system.membus.snoopTraffic                          0                       # Total snoop traffic (bytes)
system.membus.snoop_fanout::samples              1614                       # Request fanout histogram
system.membus.snoop_fanout::mean                    0                       # Request fanout histogram
system.membus.snoop_fanout::stdev                   0                       # Request fanout histogram
system.membus.snoop_fanout::underflows              0      0.00%      0.00% # Request fanout histogram
system.membus.snoop_fanout::0                    1614    100.00%    100.00% # Request fanout histogram
system.membus.snoop_fanout::1                       0      0.00%    100.00% # Request fanout histogram
system.membus.snoop_fanout::overflows               0      0.00%    100.00% # Request fanout histogram
system.membus.snoop_fanout::min_value               0                       # Request fanout histogram
system.membus.snoop_fanout::max_value               0                       # Request fanout histogram
system.membus.snoop_fanout::total                1614                       # Request fanout histogram
system.membus.power_state.pwrStateResidencyTicks::UNDEFINED 117806615000                       # Cumulative time (in ticks) in various power states
system.membus.reqLayer0.occupancy             1614000                       # Layer occupancy (ticks)
system.membus.reqLayer0.utilization               0.0                       # Layer utilization (%)
system.membus.respLayer1.occupancy           28067000                       # Layer occupancy (ticks)
system.membus.respLayer1.utilization              0.0                       # Layer utilization (%)
system.tol2bus.trans_dist::ReadResp             10352                       # Transaction distribution
system.tol2bus.trans_dist::WritebackDirty        17738                       # Transaction distribution
system.tol2bus.trans_dist::WritebackClean         5633                       # Transaction distribution
system.tol2bus.trans_dist::CleanEvict            1037                       # Transaction distribution
system.tol2bus.trans_dist::ReadExReq            14552                       # Transaction distribution
system.tol2bus.trans_dist::ReadExResp           14552                       # Transaction distribution
system.tol2bus.trans_dist::ReadCleanReq          5873                       # Transaction distribution
system.tol2bus.trans_dist::ReadSharedReq         4479                       # Transaction distribution
system.tol2bus.pkt_count_system.cpu.icache.mem_side_port::system.l2.cpu_side_port        17379                       # Packet count per connected requestor and responder (bytes)
system.tol2bus.pkt_count_system.cpu.dcache.mem_side_port::system.l2.cpu_side_port        56837                       # Packet count per connected requestor and responder (bytes)
system.tol2bus.pkt_count::total                 74216                       # Packet count per connected requestor and responder (bytes)
system.tol2bus.pkt_size_system.cpu.icache.mem_side_port::system.l2.cpu_side_port      2945536                       # Cumulative packet size per connected requestor and responder (bytes)
system.tol2bus.pkt_size_system.cpu.dcache.mem_side_port::system.l2.cpu_side_port      9412864                       # Cumulative packet size per connected requestor and responder (bytes)
system.tol2bus.pkt_size::total               12358400                       # Cumulative packet size per connected requestor and responder (bytes)
system.tol2bus.snoops                               0                       # Total snoops (count)
system.tol2bus.snoopTraffic                         0                       # Total snoop traffic (bytes)
system.tol2bus.snoop_fanout::samples            24904                       # Request fanout histogram
system.tol2bus.snoop_fanout::mean            0.051678                       # Request fanout histogram
system.tol2bus.snoop_fanout::stdev           0.221381                       # Request fanout histogram
system.tol2bus.snoop_fanout::underflows             0      0.00%      0.00% # Request fanout histogram
system.tol2bus.snoop_fanout::0                  23617     94.83%     94.83% # Request fanout histogram
system.tol2bus.snoop_fanout::1                   1287      5.17%    100.00% # Request fanout histogram
system.tol2bus.snoop_fanout::2                      0      0.00%    100.00% # Request fanout histogram
system.tol2bus.snoop_fanout::overflows              0      0.00%    100.00% # Request fanout histogram
system.tol2bus.snoop_fanout::min_value              0                       # Request fanout histogram
system.tol2bus.snoop_fanout::max_value              1                       # Request fanout histogram
system.tol2bus.snoop_fanout::total              24904                       # Request fanout histogram
system.tol2bus.power_state.pwrStateResidencyTicks::UNDEFINED 117806615000                       # Cumulative time (in ticks) in various power states
system.tol2bus.reqLayer0.occupancy          236280000                       # Layer occupancy (ticks)
system.tol2bus.reqLayer0.utilization              0.2                       # Layer utilization (%)
system.tol2bus.respLayer0.occupancy          52857000                       # Layer occupancy (ticks)
system.tol2bus.respLayer0.utilization             0.0                       # Layer utilization (%)
system.tol2bus.respLayer1.occupancy         171304974                       # Layer occupancy (ticks)
system.tol2bus.respLayer1.utilization             0.1                       # Layer utilization (%)
system.voltage_domain.voltage                       1                       # Voltage in Volts

---------- End Simulation Statistics   ----------
