
---------- Begin Simulation Statistics ----------
final_tick                               392915360000                       # Number of ticks from beginning of simulation (restored from checkpoints and never reset)
host_inst_rate                                 362828                       # Simulator instruction rate (inst/s)
host_mem_usage                                 664972                       # Number of bytes of host memory used
host_op_rate                                   362842                       # Simulator op (including micro ops) rate (op/s)
host_seconds                                   275.61                       # Real time elapsed on the host
host_tick_rate                             1425607366                       # Simulator tick rate (ticks/s)
sim_freq                                 1000000000000                       # Frequency of simulated ticks
sim_insts                                   100000000                       # Number of instructions simulated
sim_ops                                     100003793                       # Number of ops (including micro ops) simulated
sim_seconds                                  0.392915                       # Number of seconds simulated
sim_ticks                                392915360000                       # Number of ticks simulated
system.cpu.committedInsts                   100000000                       # Number of instructions committed
system.cpu.committedOps                     100003793                       # Number of ops (including micro ops) committed
system.cpu.cpi                               3.929154                       # CPI: cycles per instruction
system.cpu.discardedOps                         21237                       # Number of ops (including micro ops) which were discarded before commit
system.cpu.idleCycles                       271120388                       # Total number of cycles that the object has spent stopped
system.cpu.ipc                               0.254508                       # IPC: instructions per cycle
system.cpu.numCycles                        392915360                       # number of cpu cycles simulated
system.cpu.numFetchSuspends                         0                       # Number of times Execute suspended instruction fetching
system.cpu.numWorkItemsCompleted                    0                       # number of work items this cpu completed
system.cpu.numWorkItemsStarted                      0                       # number of work items this cpu started
system.cpu.op_class_0::No_OpClass                   0      0.00%      0.00% # Class of committed instruction
system.cpu.op_class_0::IntAlu                49995768     49.99%     49.99% # Class of committed instruction
system.cpu.op_class_0::IntMult                     85      0.00%     49.99% # Class of committed instruction
system.cpu.op_class_0::IntDiv                       0      0.00%     49.99% # Class of committed instruction
system.cpu.op_class_0::FloatAdd                     0      0.00%     49.99% # Class of committed instruction
system.cpu.op_class_0::FloatCmp                     0      0.00%     49.99% # Class of committed instruction
system.cpu.op_class_0::FloatCvt                     0      0.00%     49.99% # Class of committed instruction
system.cpu.op_class_0::FloatMult                    0      0.00%     49.99% # Class of committed instruction
system.cpu.op_class_0::FloatMultAcc                 0      0.00%     49.99% # Class of committed instruction
system.cpu.op_class_0::FloatDiv                     0      0.00%     49.99% # Class of committed instruction
system.cpu.op_class_0::FloatMisc                    0      0.00%     49.99% # Class of committed instruction
system.cpu.op_class_0::FloatSqrt                    0      0.00%     49.99% # Class of committed instruction
system.cpu.op_class_0::SimdAdd                      0      0.00%     49.99% # Class of committed instruction
system.cpu.op_class_0::SimdAddAcc                   0      0.00%     49.99% # Class of committed instruction
system.cpu.op_class_0::SimdAlu                      0      0.00%     49.99% # Class of committed instruction
system.cpu.op_class_0::SimdCmp                      0      0.00%     49.99% # Class of committed instruction
system.cpu.op_class_0::SimdCvt                      0      0.00%     49.99% # Class of committed instruction
system.cpu.op_class_0::SimdMisc                     0      0.00%     49.99% # Class of committed instruction
system.cpu.op_class_0::SimdMult                     0      0.00%     49.99% # Class of committed instruction
system.cpu.op_class_0::SimdMultAcc                  0      0.00%     49.99% # Class of committed instruction
system.cpu.op_class_0::SimdShift                    0      0.00%     49.99% # Class of committed instruction
system.cpu.op_class_0::SimdShiftAcc                 0      0.00%     49.99% # Class of committed instruction
system.cpu.op_class_0::SimdDiv                      0      0.00%     49.99% # Class of committed instruction
system.cpu.op_class_0::SimdSqrt                     0      0.00%     49.99% # Class of committed instruction
system.cpu.op_class_0::SimdFloatAdd                 0      0.00%     49.99% # Class of committed instruction
system.cpu.op_class_0::SimdFloatAlu                 0      0.00%     49.99% # Class of committed instruction
system.cpu.op_class_0::SimdFloatCmp                 2      0.00%     49.99% # Class of committed instruction
system.cpu.op_class_0::SimdFloatCvt                 0      0.00%     49.99% # Class of committed instruction
system.cpu.op_class_0::SimdFloatDiv                 0      0.00%     49.99% # Class of committed instruction
system.cpu.op_class_0::SimdFloatMisc               22      0.00%     49.99% # Class of committed instruction
system.cpu.op_class_0::SimdFloatMult                0      0.00%     49.99% # Class of committed instruction
system.cpu.op_class_0::SimdFloatMultAcc             0      0.00%     49.99% # Class of committed instruction
system.cpu.op_class_0::SimdFloatSqrt                0      0.00%     49.99% # Class of committed instruction
system.cpu.op_class_0::SimdReduceAdd                0      0.00%     49.99% # Class of committed instruction
system.cpu.op_class_0::SimdReduceAlu                0      0.00%     49.99% # Class of committed instruction
system.cpu.op_class_0::SimdReduceCmp                0      0.00%     49.99% # Class of committed instruction
system.cpu.op_class_0::SimdFloatReduceAdd            0      0.00%     49.99% # Class of committed instruction
system.cpu.op_class_0::SimdFloatReduceCmp            0      0.00%     49.99% # Class of committed instruction
system.cpu.op_class_0::SimdAes                      0      0.00%     49.99% # Class of committed instruction
system.cpu.op_class_0::SimdAesMix                   0      0.00%     49.99% # Class of committed instruction
system.cpu.op_class_0::SimdSha1Hash                 0      0.00%     49.99% # Class of committed instruction
system.cpu.op_class_0::SimdSha1Hash2                0      0.00%     49.99% # Class of committed instruction
system.cpu.op_class_0::SimdSha256Hash               0      0.00%     49.99% # Class of committed instruction
system.cpu.op_class_0::SimdSha256Hash2              0      0.00%     49.99% # Class of committed instruction
system.cpu.op_class_0::SimdShaSigma2                0      0.00%     49.99% # Class of committed instruction
system.cpu.op_class_0::SimdShaSigma3                0      0.00%     49.99% # Class of committed instruction
system.cpu.op_class_0::SimdPredAlu                  0      0.00%     49.99% # Class of committed instruction
system.cpu.op_class_0::MemRead               36892130     36.89%     86.88% # Class of committed instruction
system.cpu.op_class_0::MemWrite              13115786     13.12%    100.00% # Class of committed instruction
system.cpu.op_class_0::FloatMemRead                 0      0.00%    100.00% # Class of committed instruction
system.cpu.op_class_0::FloatMemWrite                0      0.00%    100.00% # Class of committed instruction
system.cpu.op_class_0::IprAccess                    0      0.00%    100.00% # Class of committed instruction
system.cpu.op_class_0::InstPrefetch                 0      0.00%    100.00% # Class of committed instruction
system.cpu.op_class_0::total                100003793                       # Class of committed instruction
system.cpu.tickCycles                       121794972                       # Number of cycles that the object actually ticked
system.cpu.workload.numSyscalls                    18                       # Number of system calls
system.membus.snoop_filter.hit_multi_requests            0                       # Number of requests hitting in the snoop filter with multiple (>1) holders of the requested data.
system.membus.snoop_filter.hit_multi_snoops            0                       # Number of snoops hitting in the snoop filter with multiple (>1) holders of the requested data.
system.membus.snoop_filter.hit_single_requests      2958866                       # Number of requests hitting in the snoop filter with a single holder of the requested data.
system.membus.snoop_filter.hit_single_snoops            0                       # Number of snoops hitting in the snoop filter with a single holder of the requested data.
system.membus.snoop_filter.tot_requests       5934764                       # Total number of requests made to the snoop filter.
system.membus.snoop_filter.tot_snoops               0                       # Total number of snoops made to the snoop filter.
system.tol2bus.snoop_filter.hit_multi_requests         5838                       # Number of requests hitting in the snoop filter with multiple (>1) holders of the requested data.
system.tol2bus.snoop_filter.hit_multi_snoops            0                       # Number of snoops hitting in the snoop filter with multiple (>1) holders of the requested data.
system.tol2bus.snoop_filter.hit_single_requests      2991794                       # Number of requests hitting in the snoop filter with a single holder of the requested data.
system.tol2bus.snoop_filter.hit_single_snoops          648                       # Number of snoops hitting in the snoop filter with a single holder of the requested data.
system.tol2bus.snoop_filter.tot_requests      5985259                       # Total number of requests made to the snoop filter.
system.tol2bus.snoop_filter.tot_snoops            648                       # Total number of snoops made to the snoop filter.
system.clk_domain.clock                          1000                       # Clock period in ticks
system.cpu.branchPred.lookups                  606533                       # Number of BP lookups
system.cpu.branchPred.condPredicted            604508                       # Number of conditional branches predicted
system.cpu.branchPred.condIncorrect               843                       # Number of conditional branches incorrect
system.cpu.branchPred.BTBLookups               602434                       # Number of BTB lookups
system.cpu.branchPred.BTBHits                  601494                       # Number of BTB hits
system.cpu.branchPred.BTBHitPct             99.843966                       # BTB Hit Percentage
system.cpu.branchPred.RASUsed                     570                       # Number of times the RAS was used to get a target.
system.cpu.branchPred.RASIncorrect                  0                       # Number of incorrect RAS predictions.
system.cpu.branchPred.indirectLookups             371                       # Number of indirect predictor lookups.
system.cpu.branchPred.indirectHits                173                       # Number of indirect target hits.
system.cpu.branchPred.indirectMisses              198                       # Number of indirect misses.
system.cpu.branchPred.indirectMispredicted          102                       # Number of mispredicted indirect branches.
system.cpu.dcache.demand_hits::.cpu.data     42821691                       # number of demand (read+write) hits
system.cpu.dcache.demand_hits::total         42821691                       # number of demand (read+write) hits
system.cpu.dcache.overall_hits::.cpu.data     42821726                       # number of overall hits
system.cpu.dcache.overall_hits::total        42821726                       # number of overall hits
system.cpu.dcache.demand_misses::.cpu.data      5973323                       # number of demand (read+write) misses
system.cpu.dcache.demand_misses::total        5973323                       # number of demand (read+write) misses
system.cpu.dcache.overall_misses::.cpu.data      5973353                       # number of overall misses
system.cpu.dcache.overall_misses::total       5973353                       # number of overall misses
system.cpu.dcache.demand_miss_latency::.cpu.data 574208169000                       # number of demand (read+write) miss cycles
system.cpu.dcache.demand_miss_latency::total 574208169000                       # number of demand (read+write) miss cycles
system.cpu.dcache.overall_miss_latency::.cpu.data 574208169000                       # number of overall miss cycles
system.cpu.dcache.overall_miss_latency::total 574208169000                       # number of overall miss cycles
system.cpu.dcache.demand_accesses::.cpu.data     48795014                       # number of demand (read+write) accesses
system.cpu.dcache.demand_accesses::total     48795014                       # number of demand (read+write) accesses
system.cpu.dcache.overall_accesses::.cpu.data     48795079                       # number of overall (read+write) accesses
system.cpu.dcache.overall_accesses::total     48795079                       # number of overall (read+write) accesses
system.cpu.dcache.demand_miss_rate::.cpu.data     0.122417                       # miss rate for demand accesses
system.cpu.dcache.demand_miss_rate::total     0.122417                       # miss rate for demand accesses
system.cpu.dcache.overall_miss_rate::.cpu.data     0.122417                       # miss rate for overall accesses
system.cpu.dcache.overall_miss_rate::total     0.122417                       # miss rate for overall accesses
system.cpu.dcache.demand_avg_miss_latency::.cpu.data 96128.766015                       # average overall miss latency
system.cpu.dcache.demand_avg_miss_latency::total 96128.766015                       # average overall miss latency
system.cpu.dcache.overall_avg_miss_latency::.cpu.data 96128.283227                       # average overall miss latency
system.cpu.dcache.overall_avg_miss_latency::total 96128.283227                       # average overall miss latency
system.cpu.dcache.blocked_cycles::no_mshrs            0                       # number of cycles access was blocked
system.cpu.dcache.blocked_cycles::no_targets            0                       # number of cycles access was blocked
system.cpu.dcache.blocked::no_mshrs                 0                       # number of cycles access was blocked
system.cpu.dcache.blocked::no_targets               0                       # number of cycles access was blocked
system.cpu.dcache.avg_blocked_cycles::no_mshrs          nan                       # average number of cycles each access was blocked
system.cpu.dcache.avg_blocked_cycles::no_targets          nan                       # average number of cycles each access was blocked
system.cpu.dcache.writebacks::.writebacks      2985603                       # number of writebacks
system.cpu.dcache.writebacks::total           2985603                       # number of writebacks
system.cpu.dcache.demand_mshr_hits::.cpu.data      2980749                       # number of demand (read+write) MSHR hits
system.cpu.dcache.demand_mshr_hits::total      2980749                       # number of demand (read+write) MSHR hits
system.cpu.dcache.overall_mshr_hits::.cpu.data      2980749                       # number of overall MSHR hits
system.cpu.dcache.overall_mshr_hits::total      2980749                       # number of overall MSHR hits
system.cpu.dcache.demand_mshr_misses::.cpu.data      2992574                       # number of demand (read+write) MSHR misses
system.cpu.dcache.demand_mshr_misses::total      2992574                       # number of demand (read+write) MSHR misses
system.cpu.dcache.overall_mshr_misses::.cpu.data      2992604                       # number of overall MSHR misses
system.cpu.dcache.overall_mshr_misses::total      2992604                       # number of overall MSHR misses
system.cpu.dcache.demand_mshr_miss_latency::.cpu.data 298697732000                       # number of demand (read+write) MSHR miss cycles
system.cpu.dcache.demand_mshr_miss_latency::total 298697732000                       # number of demand (read+write) MSHR miss cycles
system.cpu.dcache.overall_mshr_miss_latency::.cpu.data 298700587000                       # number of overall MSHR miss cycles
system.cpu.dcache.overall_mshr_miss_latency::total 298700587000                       # number of overall MSHR miss cycles
system.cpu.dcache.demand_mshr_miss_rate::.cpu.data     0.061330                       # mshr miss rate for demand accesses
system.cpu.dcache.demand_mshr_miss_rate::total     0.061330                       # mshr miss rate for demand accesses
system.cpu.dcache.overall_mshr_miss_rate::.cpu.data     0.061330                       # mshr miss rate for overall accesses
system.cpu.dcache.overall_mshr_miss_rate::total     0.061330                       # mshr miss rate for overall accesses
system.cpu.dcache.demand_avg_mshr_miss_latency::.cpu.data 99812.981066                       # average overall mshr miss latency
system.cpu.dcache.demand_avg_mshr_miss_latency::total 99812.981066                       # average overall mshr miss latency
system.cpu.dcache.overall_avg_mshr_miss_latency::.cpu.data 99812.934488                       # average overall mshr miss latency
system.cpu.dcache.overall_avg_mshr_miss_latency::total 99812.934488                       # average overall mshr miss latency
system.cpu.dcache.replacements                2991581                       # number of replacements
system.cpu.dcache.ReadReq_hits::.cpu.data     35690739                       # number of ReadReq hits
system.cpu.dcache.ReadReq_hits::total        35690739                       # number of ReadReq hits
system.cpu.dcache.ReadReq_misses::.cpu.data        11811                       # number of ReadReq misses
system.cpu.dcache.ReadReq_misses::total         11811                       # number of ReadReq misses
system.cpu.dcache.ReadReq_miss_latency::.cpu.data    546268000                       # number of ReadReq miss cycles
system.cpu.dcache.ReadReq_miss_latency::total    546268000                       # number of ReadReq miss cycles
system.cpu.dcache.ReadReq_accesses::.cpu.data     35702550                       # number of ReadReq accesses(hits+misses)
system.cpu.dcache.ReadReq_accesses::total     35702550                       # number of ReadReq accesses(hits+misses)
system.cpu.dcache.ReadReq_miss_rate::.cpu.data     0.000331                       # miss rate for ReadReq accesses
system.cpu.dcache.ReadReq_miss_rate::total     0.000331                       # miss rate for ReadReq accesses
system.cpu.dcache.ReadReq_avg_miss_latency::.cpu.data 46250.783168                       # average ReadReq miss latency
system.cpu.dcache.ReadReq_avg_miss_latency::total 46250.783168                       # average ReadReq miss latency
system.cpu.dcache.ReadReq_mshr_hits::.cpu.data           13                       # number of ReadReq MSHR hits
system.cpu.dcache.ReadReq_mshr_hits::total           13                       # number of ReadReq MSHR hits
system.cpu.dcache.ReadReq_mshr_misses::.cpu.data        11798                       # number of ReadReq MSHR misses
system.cpu.dcache.ReadReq_mshr_misses::total        11798                       # number of ReadReq MSHR misses
system.cpu.dcache.ReadReq_mshr_miss_latency::.cpu.data    521710000                       # number of ReadReq MSHR miss cycles
system.cpu.dcache.ReadReq_mshr_miss_latency::total    521710000                       # number of ReadReq MSHR miss cycles
system.cpu.dcache.ReadReq_mshr_miss_rate::.cpu.data     0.000330                       # mshr miss rate for ReadReq accesses
system.cpu.dcache.ReadReq_mshr_miss_rate::total     0.000330                       # mshr miss rate for ReadReq accesses
system.cpu.dcache.ReadReq_avg_mshr_miss_latency::.cpu.data 44220.206815                       # average ReadReq mshr miss latency
system.cpu.dcache.ReadReq_avg_mshr_miss_latency::total 44220.206815                       # average ReadReq mshr miss latency
system.cpu.dcache.WriteReq_hits::.cpu.data      7130952                       # number of WriteReq hits
system.cpu.dcache.WriteReq_hits::total        7130952                       # number of WriteReq hits
system.cpu.dcache.WriteReq_misses::.cpu.data      5961512                       # number of WriteReq misses
system.cpu.dcache.WriteReq_misses::total      5961512                       # number of WriteReq misses
system.cpu.dcache.WriteReq_miss_latency::.cpu.data 573661901000                       # number of WriteReq miss cycles
system.cpu.dcache.WriteReq_miss_latency::total 573661901000                       # number of WriteReq miss cycles
system.cpu.dcache.WriteReq_accesses::.cpu.data     13092464                       # number of WriteReq accesses(hits+misses)
system.cpu.dcache.WriteReq_accesses::total     13092464                       # number of WriteReq accesses(hits+misses)
system.cpu.dcache.WriteReq_miss_rate::.cpu.data     0.455339                       # miss rate for WriteReq accesses
system.cpu.dcache.WriteReq_miss_rate::total     0.455339                       # miss rate for WriteReq accesses
system.cpu.dcache.WriteReq_avg_miss_latency::.cpu.data 96227.584713                       # average WriteReq miss latency
system.cpu.dcache.WriteReq_avg_miss_latency::total 96227.584713                       # average WriteReq miss latency
system.cpu.dcache.WriteReq_mshr_hits::.cpu.data      2980736                       # number of WriteReq MSHR hits
system.cpu.dcache.WriteReq_mshr_hits::total      2980736                       # number of WriteReq MSHR hits
system.cpu.dcache.WriteReq_mshr_misses::.cpu.data      2980776                       # number of WriteReq MSHR misses
system.cpu.dcache.WriteReq_mshr_misses::total      2980776                       # number of WriteReq MSHR misses
system.cpu.dcache.WriteReq_mshr_miss_latency::.cpu.data 298176022000                       # number of WriteReq MSHR miss cycles
system.cpu.dcache.WriteReq_mshr_miss_latency::total 298176022000                       # number of WriteReq MSHR miss cycles
system.cpu.dcache.WriteReq_mshr_miss_rate::.cpu.data     0.227671                       # mshr miss rate for WriteReq accesses
system.cpu.dcache.WriteReq_mshr_miss_rate::total     0.227671                       # mshr miss rate for WriteReq accesses
system.cpu.dcache.WriteReq_avg_mshr_miss_latency::.cpu.data 100033.018919                       # average WriteReq mshr miss latency
system.cpu.dcache.WriteReq_avg_mshr_miss_latency::total 100033.018919                       # average WriteReq mshr miss latency
system.cpu.dcache.SoftPFReq_hits::.cpu.data           35                       # number of SoftPFReq hits
system.cpu.dcache.SoftPFReq_hits::total            35                       # number of SoftPFReq hits
system.cpu.dcache.SoftPFReq_misses::.cpu.data           30                       # number of SoftPFReq misses
system.cpu.dcache.SoftPFReq_misses::total           30                       # number of SoftPFReq misses
system.cpu.dcache.SoftPFReq_accesses::.cpu.data           65                       # number of SoftPFReq accesses(hits+misses)
system.cpu.dcache.SoftPFReq_accesses::total           65                       # number of SoftPFReq accesses(hits+misses)
system.cpu.dcache.SoftPFReq_miss_rate::.cpu.data     0.461538                       # miss rate for SoftPFReq accesses
system.cpu.dcache.SoftPFReq_miss_rate::total     0.461538                       # miss rate for SoftPFReq accesses
system.cpu.dcache.SoftPFReq_mshr_misses::.cpu.data           30                       # number of SoftPFReq MSHR misses
system.cpu.dcache.SoftPFReq_mshr_misses::total           30                       # number of SoftPFReq MSHR misses
system.cpu.dcache.SoftPFReq_mshr_miss_latency::.cpu.data      2855000                       # number of SoftPFReq MSHR miss cycles
system.cpu.dcache.SoftPFReq_mshr_miss_latency::total      2855000                       # number of SoftPFReq MSHR miss cycles
system.cpu.dcache.SoftPFReq_mshr_miss_rate::.cpu.data     0.461538                       # mshr miss rate for SoftPFReq accesses
system.cpu.dcache.SoftPFReq_mshr_miss_rate::total     0.461538                       # mshr miss rate for SoftPFReq accesses
system.cpu.dcache.SoftPFReq_avg_mshr_miss_latency::.cpu.data 95166.666667                       # average SoftPFReq mshr miss latency
system.cpu.dcache.SoftPFReq_avg_mshr_miss_latency::total 95166.666667                       # average SoftPFReq mshr miss latency
system.cpu.dcache.LoadLockedReq_hits::.cpu.data           13                       # number of LoadLockedReq hits
system.cpu.dcache.LoadLockedReq_hits::total           13                       # number of LoadLockedReq hits
system.cpu.dcache.LoadLockedReq_misses::.cpu.data            1                       # number of LoadLockedReq misses
system.cpu.dcache.LoadLockedReq_misses::total            1                       # number of LoadLockedReq misses
system.cpu.dcache.LoadLockedReq_miss_latency::.cpu.data        95000                       # number of LoadLockedReq miss cycles
system.cpu.dcache.LoadLockedReq_miss_latency::total        95000                       # number of LoadLockedReq miss cycles
system.cpu.dcache.LoadLockedReq_accesses::.cpu.data           14                       # number of LoadLockedReq accesses(hits+misses)
system.cpu.dcache.LoadLockedReq_accesses::total           14                       # number of LoadLockedReq accesses(hits+misses)
system.cpu.dcache.LoadLockedReq_miss_rate::.cpu.data     0.071429                       # miss rate for LoadLockedReq accesses
system.cpu.dcache.LoadLockedReq_miss_rate::total     0.071429                       # miss rate for LoadLockedReq accesses
system.cpu.dcache.LoadLockedReq_avg_miss_latency::.cpu.data        95000                       # average LoadLockedReq miss latency
system.cpu.dcache.LoadLockedReq_avg_miss_latency::total        95000                       # average LoadLockedReq miss latency
system.cpu.dcache.LoadLockedReq_mshr_misses::.cpu.data            1                       # number of LoadLockedReq MSHR misses
system.cpu.dcache.LoadLockedReq_mshr_misses::total            1                       # number of LoadLockedReq MSHR misses
system.cpu.dcache.LoadLockedReq_mshr_miss_latency::.cpu.data        93000                       # number of LoadLockedReq MSHR miss cycles
system.cpu.dcache.LoadLockedReq_mshr_miss_latency::total        93000                       # number of LoadLockedReq MSHR miss cycles
system.cpu.dcache.LoadLockedReq_mshr_miss_rate::.cpu.data     0.071429                       # mshr miss rate for LoadLockedReq accesses
system.cpu.dcache.LoadLockedReq_mshr_miss_rate::total     0.071429                       # mshr miss rate for LoadLockedReq accesses
system.cpu.dcache.LoadLockedReq_avg_mshr_miss_latency::.cpu.data        93000                       # average LoadLockedReq mshr miss latency
system.cpu.dcache.LoadLockedReq_avg_mshr_miss_latency::total        93000                       # average LoadLockedReq mshr miss latency
system.cpu.dcache.StoreCondReq_hits::.cpu.data           14                       # number of StoreCondReq hits
system.cpu.dcache.StoreCondReq_hits::total           14                       # number of StoreCondReq hits
system.cpu.dcache.StoreCondReq_accesses::.cpu.data           14                       # number of StoreCondReq accesses(hits+misses)
system.cpu.dcache.StoreCondReq_accesses::total           14                       # number of StoreCondReq accesses(hits+misses)
system.cpu.dcache.power_state.pwrStateResidencyTicks::UNDEFINED 392915360000                       # Cumulative time (in ticks) in various power states
system.cpu.dcache.tags.tagsinuse          1023.601876                       # Cycle average of tags in use
system.cpu.dcache.tags.total_refs            45814358                       # Total number of references to valid blocks.
system.cpu.dcache.tags.sampled_refs           2992605                       # Sample count of references to valid blocks.
system.cpu.dcache.tags.avg_refs             15.309190                       # Average number of references to valid blocks.
system.cpu.dcache.tags.warmup_cycle            223000                       # Cycle when the warmup percentage was hit.
system.cpu.dcache.tags.occ_blocks::.cpu.data  1023.601876                       # Average occupied blocks per requestor
system.cpu.dcache.tags.occ_percent::.cpu.data     0.999611                       # Average percentage of cache occupancy
system.cpu.dcache.tags.occ_percent::total     0.999611                       # Average percentage of cache occupancy
system.cpu.dcache.tags.occ_task_id_blocks::1024         1024                       # Occupied blocks per task id
system.cpu.dcache.tags.age_task_id_blocks_1024::0           77                       # Occupied blocks per task id
system.cpu.dcache.tags.age_task_id_blocks_1024::1          681                       # Occupied blocks per task id
system.cpu.dcache.tags.age_task_id_blocks_1024::2          266                       # Occupied blocks per task id
system.cpu.dcache.tags.occ_task_id_percent::1024            1                       # Percentage of cache occupancy per task id
system.cpu.dcache.tags.tag_accesses          51787712                       # Number of tag accesses
system.cpu.dcache.tags.data_accesses         51787712                       # Number of data accesses
system.cpu.dcache.tags.power_state.pwrStateResidencyTicks::UNDEFINED 392915360000                       # Cumulative time (in ticks) in various power states
system.cpu.dtb.instHits                             0                       # ITB inst hits
system.cpu.dtb.instMisses                           0                       # ITB inst misses
system.cpu.dtb.readHits                             0                       # DTB read hits
system.cpu.dtb.readMisses                           0                       # DTB read misses
system.cpu.dtb.writeHits                            0                       # DTB write hits
system.cpu.dtb.writeMisses                          0                       # DTB write misses
system.cpu.dtb.inserts                              0                       # Number of times an entry is inserted into the TLB
system.cpu.dtb.flushTlb                             0                       # Number of times complete TLB was flushed
system.cpu.dtb.flushTlbMva                          0                       # Number of times TLB was flushed by MVA
system.cpu.dtb.flushTlbMvaAsid                      0                       # Number of times TLB was flushed by MVA & ASID
system.cpu.dtb.flushTlbAsid                         0                       # Number of times TLB was flushed by ASID
system.cpu.dtb.flushedEntries                       0                       # Number of entries that have been flushed from TLB
system.cpu.dtb.alignFaults                          0                       # Number of TLB faults due to alignment restrictions
system.cpu.dtb.prefetchFaults                       0                       # Number of TLB faults due to prefetch
system.cpu.dtb.domainFaults                         0                       # Number of TLB faults due to domain restrictions
system.cpu.dtb.permsFaults                          0                       # Number of TLB faults due to permissions restrictions
system.cpu.dtb.readAccesses                         0                       # DTB read accesses
system.cpu.dtb.writeAccesses                        0                       # DTB write accesses
system.cpu.dtb.instAccesses                         0                       # ITB inst accesses
system.cpu.dtb.hits                                 0                       # Total TLB (inst and data) hits
system.cpu.dtb.misses                               0                       # Total TLB (inst and data) misses
system.cpu.dtb.accesses                             0                       # Total TLB (inst and data) accesses
system.cpu.dtb.stage2_mmu.stage2_tlb.instHits            0                       # ITB inst hits
system.cpu.dtb.stage2_mmu.stage2_tlb.instMisses            0                       # ITB inst misses
system.cpu.dtb.stage2_mmu.stage2_tlb.readHits            0                       # DTB read hits
system.cpu.dtb.stage2_mmu.stage2_tlb.readMisses            0                       # DTB read misses
system.cpu.dtb.stage2_mmu.stage2_tlb.writeHits            0                       # DTB write hits
system.cpu.dtb.stage2_mmu.stage2_tlb.writeMisses            0                       # DTB write misses
system.cpu.dtb.stage2_mmu.stage2_tlb.inserts            0                       # Number of times an entry is inserted into the TLB
system.cpu.dtb.stage2_mmu.stage2_tlb.flushTlb            0                       # Number of times complete TLB was flushed
system.cpu.dtb.stage2_mmu.stage2_tlb.flushTlbMva            0                       # Number of times TLB was flushed by MVA
system.cpu.dtb.stage2_mmu.stage2_tlb.flushTlbMvaAsid            0                       # Number of times TLB was flushed by MVA & ASID
system.cpu.dtb.stage2_mmu.stage2_tlb.flushTlbAsid            0                       # Number of times TLB was flushed by ASID
system.cpu.dtb.stage2_mmu.stage2_tlb.flushedEntries            0                       # Number of entries that have been flushed from TLB
system.cpu.dtb.stage2_mmu.stage2_tlb.alignFaults            0                       # Number of TLB faults due to alignment restrictions
system.cpu.dtb.stage2_mmu.stage2_tlb.prefetchFaults            0                       # Number of TLB faults due to prefetch
system.cpu.dtb.stage2_mmu.stage2_tlb.domainFaults            0                       # Number of TLB faults due to domain restrictions
system.cpu.dtb.stage2_mmu.stage2_tlb.permsFaults            0                       # Number of TLB faults due to permissions restrictions
system.cpu.dtb.stage2_mmu.stage2_tlb.readAccesses            0                       # DTB read accesses
system.cpu.dtb.stage2_mmu.stage2_tlb.writeAccesses            0                       # DTB write accesses
system.cpu.dtb.stage2_mmu.stage2_tlb.instAccesses            0                       # ITB inst accesses
system.cpu.dtb.stage2_mmu.stage2_tlb.hits            0                       # Total TLB (inst and data) hits
system.cpu.dtb.stage2_mmu.stage2_tlb.misses            0                       # Total TLB (inst and data) misses
system.cpu.dtb.stage2_mmu.stage2_tlb.accesses            0                       # Total TLB (inst and data) accesses
system.cpu.dtb.stage2_mmu.stage2_tlb.walker.walks            0                       # Table walker walks requested
system.cpu.dtb.stage2_mmu.stage2_tlb.walker.requestOrigin_Requested::Data            0                       # Table walker requests started/completed, data/inst
system.cpu.dtb.stage2_mmu.stage2_tlb.walker.requestOrigin_Requested::Inst            0                       # Table walker requests started/completed, data/inst
system.cpu.dtb.stage2_mmu.stage2_tlb.walker.requestOrigin_Requested::total            0                       # Table walker requests started/completed, data/inst
system.cpu.dtb.stage2_mmu.stage2_tlb.walker.requestOrigin_Completed::Data            0                       # Table walker requests started/completed, data/inst
system.cpu.dtb.stage2_mmu.stage2_tlb.walker.requestOrigin_Completed::Inst            0                       # Table walker requests started/completed, data/inst
system.cpu.dtb.stage2_mmu.stage2_tlb.walker.requestOrigin_Completed::total            0                       # Table walker requests started/completed, data/inst
system.cpu.dtb.stage2_mmu.stage2_tlb.walker.requestOrigin::total            0                       # Table walker requests started/completed, data/inst
system.cpu.dtb.stage2_mmu.stage2_tlb.walker.power_state.pwrStateResidencyTicks::UNDEFINED 392915360000                       # Cumulative time (in ticks) in various power states
system.cpu.dtb.walker.walks                         0                       # Table walker walks requested
system.cpu.dtb.walker.requestOrigin_Requested::Data            0                       # Table walker requests started/completed, data/inst
system.cpu.dtb.walker.requestOrigin_Requested::Inst            0                       # Table walker requests started/completed, data/inst
system.cpu.dtb.walker.requestOrigin_Requested::total            0                       # Table walker requests started/completed, data/inst
system.cpu.dtb.walker.requestOrigin_Completed::Data            0                       # Table walker requests started/completed, data/inst
system.cpu.dtb.walker.requestOrigin_Completed::Inst            0                       # Table walker requests started/completed, data/inst
system.cpu.dtb.walker.requestOrigin_Completed::total            0                       # Table walker requests started/completed, data/inst
system.cpu.dtb.walker.requestOrigin::total            0                       # Table walker requests started/completed, data/inst
system.cpu.dtb.walker.power_state.pwrStateResidencyTicks::UNDEFINED 392915360000                       # Cumulative time (in ticks) in various power states
system.cpu.fetch2.intInstructions            49664414                       # Number of integer instructions successfully decoded
system.cpu.fetch2.fpInstructions                    0                       # Number of floating point instructions successfully decoded
system.cpu.fetch2.vecInstructions                   0                       # Number of SIMD instructions successfully decoded
system.cpu.fetch2.loadInstructions           37087133                       # Number of memory load instructions successfully decoded
system.cpu.fetch2.storeInstructions          13160904                       # Number of memory store instructions successfully decoded
system.cpu.fetch2.amoInstructions                   0                       # Number of memory atomic instructions successfully decoded
system.cpu.icache.demand_hits::.cpu.inst      9635360                       # number of demand (read+write) hits
system.cpu.icache.demand_hits::total          9635360                       # number of demand (read+write) hits
system.cpu.icache.overall_hits::.cpu.inst      9635360                       # number of overall hits
system.cpu.icache.overall_hits::total         9635360                       # number of overall hits
system.cpu.icache.demand_misses::.cpu.inst          861                       # number of demand (read+write) misses
system.cpu.icache.demand_misses::total            861                       # number of demand (read+write) misses
system.cpu.icache.overall_misses::.cpu.inst          861                       # number of overall misses
system.cpu.icache.overall_misses::total           861                       # number of overall misses
system.cpu.icache.demand_miss_latency::.cpu.inst     79961000                       # number of demand (read+write) miss cycles
system.cpu.icache.demand_miss_latency::total     79961000                       # number of demand (read+write) miss cycles
system.cpu.icache.overall_miss_latency::.cpu.inst     79961000                       # number of overall miss cycles
system.cpu.icache.overall_miss_latency::total     79961000                       # number of overall miss cycles
system.cpu.icache.demand_accesses::.cpu.inst      9636221                       # number of demand (read+write) accesses
system.cpu.icache.demand_accesses::total      9636221                       # number of demand (read+write) accesses
system.cpu.icache.overall_accesses::.cpu.inst      9636221                       # number of overall (read+write) accesses
system.cpu.icache.overall_accesses::total      9636221                       # number of overall (read+write) accesses
system.cpu.icache.demand_miss_rate::.cpu.inst     0.000089                       # miss rate for demand accesses
system.cpu.icache.demand_miss_rate::total     0.000089                       # miss rate for demand accesses
system.cpu.icache.overall_miss_rate::.cpu.inst     0.000089                       # miss rate for overall accesses
system.cpu.icache.overall_miss_rate::total     0.000089                       # miss rate for overall accesses
system.cpu.icache.demand_avg_miss_latency::.cpu.inst 92869.918699                       # average overall miss latency
system.cpu.icache.demand_avg_miss_latency::total 92869.918699                       # average overall miss latency
system.cpu.icache.overall_avg_miss_latency::.cpu.inst 92869.918699                       # average overall miss latency
system.cpu.icache.overall_avg_miss_latency::total 92869.918699                       # average overall miss latency
system.cpu.icache.blocked_cycles::no_mshrs            0                       # number of cycles access was blocked
system.cpu.icache.blocked_cycles::no_targets            0                       # number of cycles access was blocked
system.cpu.icache.blocked::no_mshrs                 0                       # number of cycles access was blocked
system.cpu.icache.blocked::no_targets               0                       # number of cycles access was blocked
system.cpu.icache.avg_blocked_cycles::no_mshrs          nan                       # average number of cycles each access was blocked
system.cpu.icache.avg_blocked_cycles::no_targets          nan                       # average number of cycles each access was blocked
system.cpu.icache.writebacks::.writebacks          212                       # number of writebacks
system.cpu.icache.writebacks::total               212                       # number of writebacks
system.cpu.icache.demand_mshr_misses::.cpu.inst          861                       # number of demand (read+write) MSHR misses
system.cpu.icache.demand_mshr_misses::total          861                       # number of demand (read+write) MSHR misses
system.cpu.icache.overall_mshr_misses::.cpu.inst          861                       # number of overall MSHR misses
system.cpu.icache.overall_mshr_misses::total          861                       # number of overall MSHR misses
system.cpu.icache.demand_mshr_miss_latency::.cpu.inst     78239000                       # number of demand (read+write) MSHR miss cycles
system.cpu.icache.demand_mshr_miss_latency::total     78239000                       # number of demand (read+write) MSHR miss cycles
system.cpu.icache.overall_mshr_miss_latency::.cpu.inst     78239000                       # number of overall MSHR miss cycles
system.cpu.icache.overall_mshr_miss_latency::total     78239000                       # number of overall MSHR miss cycles
system.cpu.icache.demand_mshr_miss_rate::.cpu.inst     0.000089                       # mshr miss rate for demand accesses
system.cpu.icache.demand_mshr_miss_rate::total     0.000089                       # mshr miss rate for demand accesses
system.cpu.icache.overall_mshr_miss_rate::.cpu.inst     0.000089                       # mshr miss rate for overall accesses
system.cpu.icache.overall_mshr_miss_rate::total     0.000089                       # mshr miss rate for overall accesses
system.cpu.icache.demand_avg_mshr_miss_latency::.cpu.inst 90869.918699                       # average overall mshr miss latency
system.cpu.icache.demand_avg_mshr_miss_latency::total 90869.918699                       # average overall mshr miss latency
system.cpu.icache.overall_avg_mshr_miss_latency::.cpu.inst 90869.918699                       # average overall mshr miss latency
system.cpu.icache.overall_avg_mshr_miss_latency::total 90869.918699                       # average overall mshr miss latency
system.cpu.icache.replacements                    212                       # number of replacements
system.cpu.icache.ReadReq_hits::.cpu.inst      9635360                       # number of ReadReq hits
system.cpu.icache.ReadReq_hits::total         9635360                       # number of ReadReq hits
system.cpu.icache.ReadReq_misses::.cpu.inst          861                       # number of ReadReq misses
system.cpu.icache.ReadReq_misses::total           861                       # number of ReadReq misses
system.cpu.icache.ReadReq_miss_latency::.cpu.inst     79961000                       # number of ReadReq miss cycles
system.cpu.icache.ReadReq_miss_latency::total     79961000                       # number of ReadReq miss cycles
system.cpu.icache.ReadReq_accesses::.cpu.inst      9636221                       # number of ReadReq accesses(hits+misses)
system.cpu.icache.ReadReq_accesses::total      9636221                       # number of ReadReq accesses(hits+misses)
system.cpu.icache.ReadReq_miss_rate::.cpu.inst     0.000089                       # miss rate for ReadReq accesses
system.cpu.icache.ReadReq_miss_rate::total     0.000089                       # miss rate for ReadReq accesses
system.cpu.icache.ReadReq_avg_miss_latency::.cpu.inst 92869.918699                       # average ReadReq miss latency
system.cpu.icache.ReadReq_avg_miss_latency::total 92869.918699                       # average ReadReq miss latency
system.cpu.icache.ReadReq_mshr_misses::.cpu.inst          861                       # number of ReadReq MSHR misses
system.cpu.icache.ReadReq_mshr_misses::total          861                       # number of ReadReq MSHR misses
system.cpu.icache.ReadReq_mshr_miss_latency::.cpu.inst     78239000                       # number of ReadReq MSHR miss cycles
system.cpu.icache.ReadReq_mshr_miss_latency::total     78239000                       # number of ReadReq MSHR miss cycles
system.cpu.icache.ReadReq_mshr_miss_rate::.cpu.inst     0.000089                       # mshr miss rate for ReadReq accesses
system.cpu.icache.ReadReq_mshr_miss_rate::total     0.000089                       # mshr miss rate for ReadReq accesses
system.cpu.icache.ReadReq_avg_mshr_miss_latency::.cpu.inst 90869.918699                       # average ReadReq mshr miss latency
system.cpu.icache.ReadReq_avg_mshr_miss_latency::total 90869.918699                       # average ReadReq mshr miss latency
system.cpu.icache.power_state.pwrStateResidencyTicks::UNDEFINED 392915360000                       # Cumulative time (in ticks) in various power states
system.cpu.icache.tags.tagsinuse           648.915082                       # Cycle average of tags in use
system.cpu.icache.tags.total_refs             9636221                       # Total number of references to valid blocks.
system.cpu.icache.tags.sampled_refs               861                       # Sample count of references to valid blocks.
system.cpu.icache.tags.avg_refs          11191.894309                       # Average number of references to valid blocks.
system.cpu.icache.tags.warmup_cycle            108000                       # Cycle when the warmup percentage was hit.
system.cpu.icache.tags.occ_blocks::.cpu.inst   648.915082                       # Average occupied blocks per requestor
system.cpu.icache.tags.occ_percent::.cpu.inst     0.316853                       # Average percentage of cache occupancy
system.cpu.icache.tags.occ_percent::total     0.316853                       # Average percentage of cache occupancy
system.cpu.icache.tags.occ_task_id_blocks::1024          649                       # Occupied blocks per task id
system.cpu.icache.tags.age_task_id_blocks_1024::4          649                       # Occupied blocks per task id
system.cpu.icache.tags.occ_task_id_percent::1024     0.316895                       # Percentage of cache occupancy per task id
system.cpu.icache.tags.tag_accesses           9637082                       # Number of tag accesses
system.cpu.icache.tags.data_accesses          9637082                       # Number of data accesses
system.cpu.icache.tags.power_state.pwrStateResidencyTicks::UNDEFINED 392915360000                       # Cumulative time (in ticks) in various power states
system.cpu.itb.instHits                             0                       # ITB inst hits
system.cpu.itb.instMisses                           0                       # ITB inst misses
system.cpu.itb.readHits                             0                       # DTB read hits
system.cpu.itb.readMisses                           0                       # DTB read misses
system.cpu.itb.writeHits                            0                       # DTB write hits
system.cpu.itb.writeMisses                          0                       # DTB write misses
system.cpu.itb.inserts                              0                       # Number of times an entry is inserted into the TLB
system.cpu.itb.flushTlb                             0                       # Number of times complete TLB was flushed
system.cpu.itb.flushTlbMva                          0                       # Number of times TLB was flushed by MVA
system.cpu.itb.flushTlbMvaAsid                      0                       # Number of times TLB was flushed by MVA & ASID
system.cpu.itb.flushTlbAsid                         0                       # Number of times TLB was flushed by ASID
system.cpu.itb.flushedEntries                       0                       # Number of entries that have been flushed from TLB
system.cpu.itb.alignFaults                          0                       # Number of TLB faults due to alignment restrictions
system.cpu.itb.prefetchFaults                       0                       # Number of TLB faults due to prefetch
system.cpu.itb.domainFaults                         0                       # Number of TLB faults due to domain restrictions
system.cpu.itb.permsFaults                          0                       # Number of TLB faults due to permissions restrictions
system.cpu.itb.readAccesses                         0                       # DTB read accesses
system.cpu.itb.writeAccesses                        0                       # DTB write accesses
system.cpu.itb.instAccesses                         0                       # ITB inst accesses
system.cpu.itb.hits                                 0                       # Total TLB (inst and data) hits
system.cpu.itb.misses                               0                       # Total TLB (inst and data) misses
system.cpu.itb.accesses                             0                       # Total TLB (inst and data) accesses
system.cpu.itb.stage2_mmu.stage2_tlb.instHits            0                       # ITB inst hits
system.cpu.itb.stage2_mmu.stage2_tlb.instMisses            0                       # ITB inst misses
system.cpu.itb.stage2_mmu.stage2_tlb.readHits            0                       # DTB read hits
system.cpu.itb.stage2_mmu.stage2_tlb.readMisses            0                       # DTB read misses
system.cpu.itb.stage2_mmu.stage2_tlb.writeHits            0                       # DTB write hits
system.cpu.itb.stage2_mmu.stage2_tlb.writeMisses            0                       # DTB write misses
system.cpu.itb.stage2_mmu.stage2_tlb.inserts            0                       # Number of times an entry is inserted into the TLB
system.cpu.itb.stage2_mmu.stage2_tlb.flushTlb            0                       # Number of times complete TLB was flushed
system.cpu.itb.stage2_mmu.stage2_tlb.flushTlbMva            0                       # Number of times TLB was flushed by MVA
system.cpu.itb.stage2_mmu.stage2_tlb.flushTlbMvaAsid            0                       # Number of times TLB was flushed by MVA & ASID
system.cpu.itb.stage2_mmu.stage2_tlb.flushTlbAsid            0                       # Number of times TLB was flushed by ASID
system.cpu.itb.stage2_mmu.stage2_tlb.flushedEntries            0                       # Number of entries that have been flushed from TLB
system.cpu.itb.stage2_mmu.stage2_tlb.alignFaults            0                       # Number of TLB faults due to alignment restrictions
system.cpu.itb.stage2_mmu.stage2_tlb.prefetchFaults            0                       # Number of TLB faults due to prefetch
system.cpu.itb.stage2_mmu.stage2_tlb.domainFaults            0                       # Number of TLB faults due to domain restrictions
system.cpu.itb.stage2_mmu.stage2_tlb.permsFaults            0                       # Number of TLB faults due to permissions restrictions
system.cpu.itb.stage2_mmu.stage2_tlb.readAccesses            0                       # DTB read accesses
system.cpu.itb.stage2_mmu.stage2_tlb.writeAccesses            0                       # DTB write accesses
system.cpu.itb.stage2_mmu.stage2_tlb.instAccesses            0                       # ITB inst accesses
system.cpu.itb.stage2_mmu.stage2_tlb.hits            0                       # Total TLB (inst and data) hits
system.cpu.itb.stage2_mmu.stage2_tlb.misses            0                       # Total TLB (inst and data) misses
system.cpu.itb.stage2_mmu.stage2_tlb.accesses            0                       # Total TLB (inst and data) accesses
system.cpu.itb.stage2_mmu.stage2_tlb.walker.walks            0                       # Table walker walks requested
system.cpu.itb.stage2_mmu.stage2_tlb.walker.requestOrigin_Requested::Data            0                       # Table walker requests started/completed, data/inst
system.cpu.itb.stage2_mmu.stage2_tlb.walker.requestOrigin_Requested::Inst            0                       # Table walker requests started/completed, data/inst
system.cpu.itb.stage2_mmu.stage2_tlb.walker.requestOrigin_Requested::total            0                       # Table walker requests started/completed, data/inst
system.cpu.itb.stage2_mmu.stage2_tlb.walker.requestOrigin_Completed::Data            0                       # Table walker requests started/completed, data/inst
system.cpu.itb.stage2_mmu.stage2_tlb.walker.requestOrigin_Completed::Inst            0                       # Table walker requests started/completed, data/inst
system.cpu.itb.stage2_mmu.stage2_tlb.walker.requestOrigin_Completed::total            0                       # Table walker requests started/completed, data/inst
system.cpu.itb.stage2_mmu.stage2_tlb.walker.requestOrigin::total            0                       # Table walker requests started/completed, data/inst
system.cpu.itb.stage2_mmu.stage2_tlb.walker.power_state.pwrStateResidencyTicks::UNDEFINED 392915360000                       # Cumulative time (in ticks) in various power states
system.cpu.itb.walker.walks                         0                       # Table walker walks requested
system.cpu.itb.walker.requestOrigin_Requested::Data            0                       # Table walker requests started/completed, data/inst
system.cpu.itb.walker.requestOrigin_Requested::Inst            0                       # Table walker requests started/completed, data/inst
system.cpu.itb.walker.requestOrigin_Requested::total            0                       # Table walker requests started/completed, data/inst
system.cpu.itb.walker.requestOrigin_Completed::Data            0                       # Table walker requests started/completed, data/inst
system.cpu.itb.walker.requestOrigin_Completed::Inst            0                       # Table walker requests started/completed, data/inst
system.cpu.itb.walker.requestOrigin_Completed::total            0                       # Table walker requests started/completed, data/inst
system.cpu.itb.walker.requestOrigin::total            0                       # Table walker requests started/completed, data/inst
system.cpu.itb.walker.power_state.pwrStateResidencyTicks::UNDEFINED 392915360000                       # Cumulative time (in ticks) in various power states
system.cpu.power_state.pwrStateResidencyTicks::ON 392915360000                       # Cumulative time (in ticks) in various power states
system.cpu.thread_0.numInsts                100000000                       # Number of Instructions committed
system.cpu.thread_0.numOps                  100003793                       # Number of Ops committed
system.cpu.thread_0.numMemRefs                      0                       # Number of Memory References
system.cpu_clk_domain.clock                      1000                       # Clock period in ticks
system.cpu_voltage_domain.voltage                   1                       # Voltage in Volts
system.l2.demand_hits::.cpu.inst                   94                       # number of demand (read+write) hits
system.l2.demand_hits::.cpu.data                17469                       # number of demand (read+write) hits
system.l2.demand_hits::total                    17563                       # number of demand (read+write) hits
system.l2.overall_hits::.cpu.inst                  94                       # number of overall hits
system.l2.overall_hits::.cpu.data               17469                       # number of overall hits
system.l2.overall_hits::total                   17563                       # number of overall hits
system.l2.demand_misses::.cpu.inst                767                       # number of demand (read+write) misses
system.l2.demand_misses::.cpu.data            2975136                       # number of demand (read+write) misses
system.l2.demand_misses::total                2975903                       # number of demand (read+write) misses
system.l2.overall_misses::.cpu.inst               767                       # number of overall misses
system.l2.overall_misses::.cpu.data           2975136                       # number of overall misses
system.l2.overall_misses::total               2975903                       # number of overall misses
system.l2.demand_miss_latency::.cpu.inst     73656000                       # number of demand (read+write) miss cycles
system.l2.demand_miss_latency::.cpu.data 288937597000                       # number of demand (read+write) miss cycles
system.l2.demand_miss_latency::total     289011253000                       # number of demand (read+write) miss cycles
system.l2.overall_miss_latency::.cpu.inst     73656000                       # number of overall miss cycles
system.l2.overall_miss_latency::.cpu.data 288937597000                       # number of overall miss cycles
system.l2.overall_miss_latency::total    289011253000                       # number of overall miss cycles
system.l2.demand_accesses::.cpu.inst              861                       # number of demand (read+write) accesses
system.l2.demand_accesses::.cpu.data          2992605                       # number of demand (read+write) accesses
system.l2.demand_accesses::total              2993466                       # number of demand (read+write) accesses
system.l2.overall_accesses::.cpu.inst             861                       # number of overall (read+write) accesses
system.l2.overall_accesses::.cpu.data         2992605                       # number of overall (read+write) accesses
system.l2.overall_accesses::total             2993466                       # number of overall (read+write) accesses
system.l2.demand_miss_rate::.cpu.inst        0.890825                       # miss rate for demand accesses
system.l2.demand_miss_rate::.cpu.data        0.994163                       # miss rate for demand accesses
system.l2.demand_miss_rate::total            0.994133                       # miss rate for demand accesses
system.l2.overall_miss_rate::.cpu.inst       0.890825                       # miss rate for overall accesses
system.l2.overall_miss_rate::.cpu.data       0.994163                       # miss rate for overall accesses
system.l2.overall_miss_rate::total           0.994133                       # miss rate for overall accesses
system.l2.demand_avg_miss_latency::.cpu.inst 96031.290743                       # average overall miss latency
system.l2.demand_avg_miss_latency::.cpu.data 97117.441690                       # average overall miss latency
system.l2.demand_avg_miss_latency::total 97117.161749                       # average overall miss latency
system.l2.overall_avg_miss_latency::.cpu.inst 96031.290743                       # average overall miss latency
system.l2.overall_avg_miss_latency::.cpu.data 97117.441690                       # average overall miss latency
system.l2.overall_avg_miss_latency::total 97117.161749                       # average overall miss latency
system.l2.blocked_cycles::no_mshrs                  0                       # number of cycles access was blocked
system.l2.blocked_cycles::no_targets                0                       # number of cycles access was blocked
system.l2.blocked::no_mshrs                         0                       # number of cycles access was blocked
system.l2.blocked::no_targets                       0                       # number of cycles access was blocked
system.l2.avg_blocked_cycles::no_mshrs            nan                       # average number of cycles each access was blocked
system.l2.avg_blocked_cycles::no_targets          nan                       # average number of cycles each access was blocked
system.l2.writebacks::.writebacks             2958605                       # number of writebacks
system.l2.writebacks::total                   2958605                       # number of writebacks
system.l2.demand_mshr_hits::.cpu.inst               1                       # number of demand (read+write) MSHR hits
system.l2.demand_mshr_hits::.cpu.data               4                       # number of demand (read+write) MSHR hits
system.l2.demand_mshr_hits::total                   5                       # number of demand (read+write) MSHR hits
system.l2.overall_mshr_hits::.cpu.inst              1                       # number of overall MSHR hits
system.l2.overall_mshr_hits::.cpu.data              4                       # number of overall MSHR hits
system.l2.overall_mshr_hits::total                  5                       # number of overall MSHR hits
system.l2.demand_mshr_misses::.cpu.inst           766                       # number of demand (read+write) MSHR misses
system.l2.demand_mshr_misses::.cpu.data       2975132                       # number of demand (read+write) MSHR misses
system.l2.demand_mshr_misses::total           2975898                       # number of demand (read+write) MSHR misses
system.l2.overall_mshr_misses::.cpu.inst          766                       # number of overall MSHR misses
system.l2.overall_mshr_misses::.cpu.data      2975132                       # number of overall MSHR misses
system.l2.overall_mshr_misses::total          2975898                       # number of overall MSHR misses
system.l2.demand_mshr_miss_latency::.cpu.inst     58259000                       # number of demand (read+write) MSHR miss cycles
system.l2.demand_mshr_miss_latency::.cpu.data 229434620000                       # number of demand (read+write) MSHR miss cycles
system.l2.demand_mshr_miss_latency::total 229492879000                       # number of demand (read+write) MSHR miss cycles
system.l2.overall_mshr_miss_latency::.cpu.inst     58259000                       # number of overall MSHR miss cycles
system.l2.overall_mshr_miss_latency::.cpu.data 229434620000                       # number of overall MSHR miss cycles
system.l2.overall_mshr_miss_latency::total 229492879000                       # number of overall MSHR miss cycles
system.l2.demand_mshr_miss_rate::.cpu.inst     0.889663                       # mshr miss rate for demand accesses
system.l2.demand_mshr_miss_rate::.cpu.data     0.994161                       # mshr miss rate for demand accesses
system.l2.demand_mshr_miss_rate::total       0.994131                       # mshr miss rate for demand accesses
system.l2.overall_mshr_miss_rate::.cpu.inst     0.889663                       # mshr miss rate for overall accesses
system.l2.overall_mshr_miss_rate::.cpu.data     0.994161                       # mshr miss rate for overall accesses
system.l2.overall_mshr_miss_rate::total      0.994131                       # mshr miss rate for overall accesses
system.l2.demand_avg_mshr_miss_latency::.cpu.inst 76056.135770                       # average overall mshr miss latency
system.l2.demand_avg_mshr_miss_latency::.cpu.data 77117.458990                       # average overall mshr miss latency
system.l2.demand_avg_mshr_miss_latency::total 77117.185804                       # average overall mshr miss latency
system.l2.overall_avg_mshr_miss_latency::.cpu.inst 76056.135770                       # average overall mshr miss latency
system.l2.overall_avg_mshr_miss_latency::.cpu.data 77117.458990                       # average overall mshr miss latency
system.l2.overall_avg_mshr_miss_latency::total 77117.185804                       # average overall mshr miss latency
system.l2.replacements                        2959514                       # number of replacements
system.l2.WritebackDirty_hits::.writebacks      2985603                       # number of WritebackDirty hits
system.l2.WritebackDirty_hits::total          2985603                       # number of WritebackDirty hits
system.l2.WritebackDirty_accesses::.writebacks      2985603                       # number of WritebackDirty accesses(hits+misses)
system.l2.WritebackDirty_accesses::total      2985603                       # number of WritebackDirty accesses(hits+misses)
system.l2.WritebackClean_hits::.writebacks          206                       # number of WritebackClean hits
system.l2.WritebackClean_hits::total              206                       # number of WritebackClean hits
system.l2.WritebackClean_accesses::.writebacks          206                       # number of WritebackClean accesses(hits+misses)
system.l2.WritebackClean_accesses::total          206                       # number of WritebackClean accesses(hits+misses)
system.l2.ReadExReq_hits::.cpu.data              5813                       # number of ReadExReq hits
system.l2.ReadExReq_hits::total                  5813                       # number of ReadExReq hits
system.l2.ReadExReq_misses::.cpu.data         2974963                       # number of ReadExReq misses
system.l2.ReadExReq_misses::total             2974963                       # number of ReadExReq misses
system.l2.ReadExReq_miss_latency::.cpu.data 288919853000                       # number of ReadExReq miss cycles
system.l2.ReadExReq_miss_latency::total  288919853000                       # number of ReadExReq miss cycles
system.l2.ReadExReq_accesses::.cpu.data       2980776                       # number of ReadExReq accesses(hits+misses)
system.l2.ReadExReq_accesses::total           2980776                       # number of ReadExReq accesses(hits+misses)
system.l2.ReadExReq_miss_rate::.cpu.data     0.998050                       # miss rate for ReadExReq accesses
system.l2.ReadExReq_miss_rate::total         0.998050                       # miss rate for ReadExReq accesses
system.l2.ReadExReq_avg_miss_latency::.cpu.data 97117.124818                       # average ReadExReq miss latency
system.l2.ReadExReq_avg_miss_latency::total 97117.124818                       # average ReadExReq miss latency
system.l2.ReadExReq_mshr_misses::.cpu.data      2974963                       # number of ReadExReq MSHR misses
system.l2.ReadExReq_mshr_misses::total        2974963                       # number of ReadExReq MSHR misses
system.l2.ReadExReq_mshr_miss_latency::.cpu.data 229420593000                       # number of ReadExReq MSHR miss cycles
system.l2.ReadExReq_mshr_miss_latency::total 229420593000                       # number of ReadExReq MSHR miss cycles
system.l2.ReadExReq_mshr_miss_rate::.cpu.data     0.998050                       # mshr miss rate for ReadExReq accesses
system.l2.ReadExReq_mshr_miss_rate::total     0.998050                       # mshr miss rate for ReadExReq accesses
system.l2.ReadExReq_avg_mshr_miss_latency::.cpu.data 77117.124818                       # average ReadExReq mshr miss latency
system.l2.ReadExReq_avg_mshr_miss_latency::total 77117.124818                       # average ReadExReq mshr miss latency
system.l2.ReadCleanReq_hits::.cpu.inst             94                       # number of ReadCleanReq hits
system.l2.ReadCleanReq_hits::total                 94                       # number of ReadCleanReq hits
system.l2.ReadCleanReq_misses::.cpu.inst          767                       # number of ReadCleanReq misses
system.l2.ReadCleanReq_misses::total              767                       # number of ReadCleanReq misses
system.l2.ReadCleanReq_miss_latency::.cpu.inst     73656000                       # number of ReadCleanReq miss cycles
system.l2.ReadCleanReq_miss_latency::total     73656000                       # number of ReadCleanReq miss cycles
system.l2.ReadCleanReq_accesses::.cpu.inst          861                       # number of ReadCleanReq accesses(hits+misses)
system.l2.ReadCleanReq_accesses::total            861                       # number of ReadCleanReq accesses(hits+misses)
system.l2.ReadCleanReq_miss_rate::.cpu.inst     0.890825                       # miss rate for ReadCleanReq accesses
system.l2.ReadCleanReq_miss_rate::total      0.890825                       # miss rate for ReadCleanReq accesses
system.l2.ReadCleanReq_avg_miss_latency::.cpu.inst 96031.290743                       # average ReadCleanReq miss latency
system.l2.ReadCleanReq_avg_miss_latency::total 96031.290743                       # average ReadCleanReq miss latency
system.l2.ReadCleanReq_mshr_hits::.cpu.inst            1                       # number of ReadCleanReq MSHR hits
system.l2.ReadCleanReq_mshr_hits::total             1                       # number of ReadCleanReq MSHR hits
system.l2.ReadCleanReq_mshr_misses::.cpu.inst          766                       # number of ReadCleanReq MSHR misses
system.l2.ReadCleanReq_mshr_misses::total          766                       # number of ReadCleanReq MSHR misses
system.l2.ReadCleanReq_mshr_miss_latency::.cpu.inst     58259000                       # number of ReadCleanReq MSHR miss cycles
system.l2.ReadCleanReq_mshr_miss_latency::total     58259000                       # number of ReadCleanReq MSHR miss cycles
system.l2.ReadCleanReq_mshr_miss_rate::.cpu.inst     0.889663                       # mshr miss rate for ReadCleanReq accesses
system.l2.ReadCleanReq_mshr_miss_rate::total     0.889663                       # mshr miss rate for ReadCleanReq accesses
system.l2.ReadCleanReq_avg_mshr_miss_latency::.cpu.inst 76056.135770                       # average ReadCleanReq mshr miss latency
system.l2.ReadCleanReq_avg_mshr_miss_latency::total 76056.135770                       # average ReadCleanReq mshr miss latency
system.l2.ReadSharedReq_hits::.cpu.data         11656                       # number of ReadSharedReq hits
system.l2.ReadSharedReq_hits::total             11656                       # number of ReadSharedReq hits
system.l2.ReadSharedReq_misses::.cpu.data          173                       # number of ReadSharedReq misses
system.l2.ReadSharedReq_misses::total             173                       # number of ReadSharedReq misses
system.l2.ReadSharedReq_miss_latency::.cpu.data     17744000                       # number of ReadSharedReq miss cycles
system.l2.ReadSharedReq_miss_latency::total     17744000                       # number of ReadSharedReq miss cycles
system.l2.ReadSharedReq_accesses::.cpu.data        11829                       # number of ReadSharedReq accesses(hits+misses)
system.l2.ReadSharedReq_accesses::total         11829                       # number of ReadSharedReq accesses(hits+misses)
system.l2.ReadSharedReq_miss_rate::.cpu.data     0.014625                       # miss rate for ReadSharedReq accesses
system.l2.ReadSharedReq_miss_rate::total     0.014625                       # miss rate for ReadSharedReq accesses
system.l2.ReadSharedReq_avg_miss_latency::.cpu.data 102566.473988                       # average ReadSharedReq miss latency
system.l2.ReadSharedReq_avg_miss_latency::total 102566.473988                       # average ReadSharedReq miss latency
system.l2.ReadSharedReq_mshr_hits::.cpu.data            4                       # number of ReadSharedReq MSHR hits
system.l2.ReadSharedReq_mshr_hits::total            4                       # number of ReadSharedReq MSHR hits
system.l2.ReadSharedReq_mshr_misses::.cpu.data          169                       # number of ReadSharedReq MSHR misses
system.l2.ReadSharedReq_mshr_misses::total          169                       # number of ReadSharedReq MSHR misses
system.l2.ReadSharedReq_mshr_miss_latency::.cpu.data     14027000                       # number of ReadSharedReq MSHR miss cycles
system.l2.ReadSharedReq_mshr_miss_latency::total     14027000                       # number of ReadSharedReq MSHR miss cycles
system.l2.ReadSharedReq_mshr_miss_rate::.cpu.data     0.014287                       # mshr miss rate for ReadSharedReq accesses
system.l2.ReadSharedReq_mshr_miss_rate::total     0.014287                       # mshr miss rate for ReadSharedReq accesses
system.l2.ReadSharedReq_avg_mshr_miss_latency::.cpu.data        83000                       # average ReadSharedReq mshr miss latency
system.l2.ReadSharedReq_avg_mshr_miss_latency::total        83000                       # average ReadSharedReq mshr miss latency
system.l2.power_state.pwrStateResidencyTicks::UNDEFINED 392915360000                       # Cumulative time (in ticks) in various power states
system.l2.tags.tagsinuse                 16339.391539                       # Cycle average of tags in use
system.l2.tags.total_refs                     5979416                       # Total number of references to valid blocks.
system.l2.tags.sampled_refs                   2975898                       # Sample count of references to valid blocks.
system.l2.tags.avg_refs                      2.009281                       # Average number of references to valid blocks.
system.l2.tags.warmup_cycle                     87000                       # Cycle when the warmup percentage was hit.
system.l2.tags.occ_blocks::.cpu.inst         4.281572                       # Average occupied blocks per requestor
system.l2.tags.occ_blocks::.cpu.data     16335.109967                       # Average occupied blocks per requestor
system.l2.tags.occ_percent::.cpu.inst        0.000261                       # Average percentage of cache occupancy
system.l2.tags.occ_percent::.cpu.data        0.997016                       # Average percentage of cache occupancy
system.l2.tags.occ_percent::total            0.997277                       # Average percentage of cache occupancy
system.l2.tags.occ_task_id_blocks::1024         16384                       # Occupied blocks per task id
system.l2.tags.age_task_id_blocks_1024::0           77                       # Occupied blocks per task id
system.l2.tags.age_task_id_blocks_1024::1          680                       # Occupied blocks per task id
system.l2.tags.age_task_id_blocks_1024::2         6815                       # Occupied blocks per task id
system.l2.tags.age_task_id_blocks_1024::3         8810                       # Occupied blocks per task id
system.l2.tags.age_task_id_blocks_1024::4            2                       # Occupied blocks per task id
system.l2.tags.occ_task_id_percent::1024            1                       # Percentage of cache occupancy per task id
system.l2.tags.tag_accesses                  14934740                       # Number of tag accesses
system.l2.tags.data_accesses                 14934740                       # Number of data accesses
system.l2.tags.power_state.pwrStateResidencyTicks::UNDEFINED 392915360000                       # Cumulative time (in ticks) in various power states
system.mem_ctrls.avgPriority_.writebacks::samples   1480066.00                       # Average QoS priority value for accepted requests
system.mem_ctrls.avgPriority_.cpu.inst::samples       766.00                       # Average QoS priority value for accepted requests
system.mem_ctrls.avgPriority_.cpu.data::samples   2975132.00                       # Average QoS priority value for accepted requests
system.mem_ctrls.priorityMinLatency      0.000000018750                       # per QoS priority minimum request to response latency (s)
system.mem_ctrls.priorityMaxLatency      0.002106109250                       # per QoS priority maximum request to response latency (s)
system.mem_ctrls.numReadWriteTurnArounds        92314                       # Number of turnarounds from READ to WRITE
system.mem_ctrls.numWriteReadTurnArounds        92314                       # Number of turnarounds from WRITE to READ
system.mem_ctrls.numStayReadState             8917381                       # Number of times bus staying in READ state
system.mem_ctrls.numStayWriteState            1388641                       # Number of times bus staying in WRITE state
system.mem_ctrls.readReqs                     2975898                       # Number of read requests accepted
system.mem_ctrls.writeReqs                    2958605                       # Number of write requests accepted
system.mem_ctrls.readBursts                   2975898                       # Number of controller read bursts, including those serviced by the write queue
system.mem_ctrls.writeBursts                  2958605                       # Number of controller write bursts, including those merged in the write queue
system.mem_ctrls.servicedByWrQ                      0                       # Number of controller read bursts serviced by the write queue
system.mem_ctrls.mergedWrBursts               1478539                       # Number of controller write bursts merged with an existing one
system.mem_ctrls.neitherReadNorWriteReqs            0                       # Number of requests that are neither read nor write
system.mem_ctrls.avgRdQLen                       1.00                       # Average read queue length when enqueuing
system.mem_ctrls.avgWrQLen                      25.52                       # Average write queue length when enqueuing
system.mem_ctrls.numRdRetry                         0                       # Number of times read queue was full causing retry
system.mem_ctrls.numWrRetry                         0                       # Number of times write queue was full causing retry
system.mem_ctrls.readPktSize::0                     0                       # Read request sizes (log2)
system.mem_ctrls.readPktSize::1                     0                       # Read request sizes (log2)
system.mem_ctrls.readPktSize::2                     0                       # Read request sizes (log2)
system.mem_ctrls.readPktSize::3                     0                       # Read request sizes (log2)
system.mem_ctrls.readPktSize::4                     0                       # Read request sizes (log2)
system.mem_ctrls.readPktSize::5               2975898                       # Read request sizes (log2)
system.mem_ctrls.writePktSize::0                    0                       # Write request sizes (log2)
system.mem_ctrls.writePktSize::1                    0                       # Write request sizes (log2)
[...]
system.mem_ctrls.dram.bw_write::.writebacks    240956118                       # Write bandwidth from this memory (bytes/s)
system.mem_ctrls.dram.bw_write::total       240956118                       # Write bandwidth from this memory (bytes/s)
system.mem_ctrls.dram.bw_total::.writebacks    240956118                       # Total bandwidth to/from this memory (bytes/s)
system.mem_ctrls.dram.bw_total::.cpu.inst        62385                       # Total bandwidth to/from this memory (bytes/s)
system.mem_ctrls.dram.bw_total::.cpu.data    242302118                       # Total bandwidth to/from this memory (bytes/s)
system.mem_ctrls.dram.bw_total::total       483320622                       # Total bandwidth to/from this memory (bytes/s)
system.mem_ctrls.dram.readBursts              2975898                       # Number of DRAM read bursts
system.mem_ctrls.dram.writeBursts             1480041                       # Number of DRAM write bursts
system.mem_ctrls.dram.perBankRdBursts::0       186081                       # Per bank write bursts
system.mem_ctrls.dram.perBankRdBursts::1       185918                       # Per bank write bursts
system.mem_ctrls.dram.perBankRdBursts::2       185964                       # Per bank write bursts
system.mem_ctrls.dram.perBankRdBursts::3       185872                       # Per bank write bursts
system.mem_ctrls.dram.perBankRdBursts::4       186051                       # Per bank write bursts
system.mem_ctrls.dram.perBankRdBursts::5       186140                       # Per bank write bursts
system.mem_ctrls.dram.perBankRdBursts::6       186119                       # Per bank write bursts
system.mem_ctrls.dram.perBankRdBursts::7       186147                       # Per bank write bursts
system.mem_ctrls.dram.perBankRdBursts::8       186243                       # Per bank write bursts
system.mem_ctrls.dram.perBankRdBursts::9       185875                       # Per bank write bursts
system.mem_ctrls.dram.perBankRdBursts::10       185897                       # Per bank write bursts
system.mem_ctrls.dram.perBankRdBursts::11       185893                       # Per bank write bursts
system.mem_ctrls.dram.perBankRdBursts::12       185962                       # Per bank write bursts
system.mem_ctrls.dram.perBankRdBursts::13       185889                       # Per bank write bursts
system.mem_ctrls.dram.perBankRdBursts::14       185898                       # Per bank write bursts
system.mem_ctrls.dram.perBankRdBursts::15       185949                       # Per bank write bursts
system.mem_ctrls.dram.perBankWrBursts::0        92822                       # Per bank write bursts
system.mem_ctrls.dram.perBankWrBursts::1        92813                       # Per bank write bursts
system.mem_ctrls.dram.perBankWrBursts::2        92431                       # Per bank write bursts
system.mem_ctrls.dram.perBankWrBursts::3        92423                       # Per bank write bursts
system.mem_ctrls.dram.perBankWrBursts::4        92481                       # Per bank write bursts
system.mem_ctrls.dram.perBankWrBursts::5        92544                       # Per bank write bursts
system.mem_ctrls.dram.perBankWrBursts::6        92544                       # Per bank write bursts
system.mem_ctrls.dram.perBankWrBursts::7        92544                       # Per bank write bursts
system.mem_ctrls.dram.perBankWrBursts::8        92524                       # Per bank write bursts
system.mem_ctrls.dram.perBankWrBursts::9        92416                       # Per bank write bursts
system.mem_ctrls.dram.perBankWrBursts::10        92416                       # Per bank write bursts
system.mem_ctrls.dram.perBankWrBursts::11        92416                       # Per bank write bursts
system.mem_ctrls.dram.perBankWrBursts::12        92416                       # Per bank write bursts
system.mem_ctrls.dram.perBankWrBursts::13        92416                       # Per bank write bursts
system.mem_ctrls.dram.perBankWrBursts::14        92416                       # Per bank write bursts
system.mem_ctrls.dram.perBankWrBursts::15        92419                       # Per bank write bursts
system.mem_ctrls.dram.totQLat             21134660000                       # Total ticks spent queuing
system.mem_ctrls.dram.totBusLat           14879490000                       # Total ticks spent in databus transfers
system.mem_ctrls.dram.totMemAccLat        76932747500                       # Total ticks spent from burst creation until serviced by the DRAM
system.mem_ctrls.dram.avgQLat                 7101.94                       # Average queueing delay per DRAM burst
system.mem_ctrls.dram.avgBusLat               5000.00                       # Average bus latency per DRAM burst
system.mem_ctrls.dram.avgMemAccLat           25851.94                       # Average memory access latency per DRAM burst
system.mem_ctrls.dram.readRowHits             2734189                       # Number of row buffer hits during reads
system.mem_ctrls.dram.writeRowHits            1374332                       # Number of row buffer hits during writes
system.mem_ctrls.dram.readRowHitRate            91.88                       # Row buffer hit rate for reads
system.mem_ctrls.dram.writeRowHitRate           92.86                       # Row buffer hit rate for writes
system.mem_ctrls.dram.bytesPerActivate::samples       347418                       # Bytes accessed per row activation
system.mem_ctrls.dram.bytesPerActivate::mean   820.855845                       # Bytes accessed per row activation
system.mem_ctrls.dram.bytesPerActivate::gmean   702.213462                       # Bytes accessed per row activation
system.mem_ctrls.dram.bytesPerActivate::stdev   313.466941                       # Bytes accessed per row activation
system.mem_ctrls.dram.bytesPerActivate::0-127        12002      3.45%      3.45% # Bytes accessed per row activation
system.mem_ctrls.dram.bytesPerActivate::128-255        20977      6.04%      9.49% # Bytes accessed per row activation
system.mem_ctrls.dram.bytesPerActivate::256-383        16346      4.70%     14.20% # Bytes accessed per row activation
system.mem_ctrls.dram.bytesPerActivate::384-511        16918      4.87%     19.07% # Bytes accessed per row activation
system.mem_ctrls.dram.bytesPerActivate::512-639        16789      4.83%     23.90% # Bytes accessed per row activation
system.mem_ctrls.dram.bytesPerActivate::640-767        15591      4.49%     28.39% # Bytes accessed per row activation
system.mem_ctrls.dram.bytesPerActivate::768-895        16180      4.66%     33.04% # Bytes accessed per row activation
system.mem_ctrls.dram.bytesPerActivate::896-1023        17710      5.10%     38.14% # Bytes accessed per row activation
system.mem_ctrls.dram.bytesPerActivate::1024-1151       214905     61.86%    100.00% # Bytes accessed per row activation
system.mem_ctrls.dram.bytesPerActivate::total       347418                       # Bytes accessed per row activation
system.mem_ctrls.dram.bytesRead             190457472                       # Total number of bytes read from DRAM
system.mem_ctrls.dram.bytesWritten           94722624                       # Total number of bytes written to DRAM
system.mem_ctrls.dram.avgRdBW              484.729006                       # Average DRAM read bandwidth in MiBytes/s
system.mem_ctrls.dram.avgWrBW              241.076409                       # Average DRAM write bandwidth in MiBytes/s
system.mem_ctrls.dram.peakBW                 12800.00                       # Theoretical peak bandwidth in MiByte/s
system.mem_ctrls.dram.busUtil                    5.67                       # Data bus utilization in percentage
system.mem_ctrls.dram.busUtilRead                3.79                       # Data bus utilization in percentage for reads
system.mem_ctrls.dram.busUtilWrite               1.88                       # Data bus utilization in percentage for writes
system.mem_ctrls.dram.pageHitRate               92.20                       # Row buffer hit rate, read and write combined
system.mem_ctrls.dram.power_state.pwrStateResidencyTicks::UNDEFINED 392915360000                       # Cumulative time (in ticks) in various power states
system.mem_ctrls.dram.rank0.actEnergy      1242695580                       # Energy for activate commands per rank (pJ)
system.mem_ctrls.dram.rank0.preEnergy       660508365                       # Energy for precharge commands per rank (pJ)
system.mem_ctrls.dram.rank0.readEnergy    10626404880                       # Energy for read commands per rank (pJ)
system.mem_ctrls.dram.rank0.writeEnergy    3865942440                       # Energy for write commands per rank (pJ)
system.mem_ctrls.dram.rank0.refreshEnergy 31015963680.000004                       # Energy for refresh commands per rank (pJ)
system.mem_ctrls.dram.rank0.actBackEnergy  90843138960                       # Energy for active background per rank (pJ)
system.mem_ctrls.dram.rank0.preBackEnergy  74380012800                       # Energy for precharge background per rank (pJ)
system.mem_ctrls.dram.rank0.actPowerDownEnergy            0                       # Energy for active power-down per rank (pJ)
system.mem_ctrls.dram.rank0.prePowerDownEnergy            0                       # Energy for precharge power-down per rank (pJ)
system.mem_ctrls.dram.rank0.selfRefreshEnergy            0                       # Energy for self refresh per rank (pJ)
system.mem_ctrls.dram.rank0.totalEnergy  212634666705                       # Total energy per rank (pJ)
system.mem_ctrls.dram.rank0.averagePower   541.171683                       # Core power per rank (mW)
system.mem_ctrls.dram.rank0.totalIdleTime            0                       # Total Idle time Per DRAM Rank
system.mem_ctrls.dram.rank0.pwrStateTime::IDLE 191098253000                       # Time in different power states
system.mem_ctrls.dram.rank0.pwrStateTime::REF  13120120000                       # Time in different power states
system.mem_ctrls.dram.rank0.pwrStateTime::SREF            0                       # Time in different power states
system.mem_ctrls.dram.rank0.pwrStateTime::PRE_PDN            0                       # Time in different power states
system.mem_ctrls.dram.rank0.pwrStateTime::ACT 188696987000                       # Time in different power states
system.mem_ctrls.dram.rank0.pwrStateTime::ACT_PDN            0                       # Time in different power states
system.mem_ctrls.dram.rank1.actEnergy      1237868940                       # Energy for activate commands per rank (pJ)
system.mem_ctrls.dram.rank1.preEnergy       657942945                       # Energy for precharge commands per rank (pJ)
system.mem_ctrls.dram.rank1.readEnergy    10621506840                       # Energy for read commands per rank (pJ)
system.mem_ctrls.dram.rank1.writeEnergy    3859871580                       # Energy for write commands per rank (pJ)
system.mem_ctrls.dram.rank1.refreshEnergy 31015963680.000004                       # Energy for refresh commands per rank (pJ)
system.mem_ctrls.dram.rank1.actBackEnergy  90759814080                       # Energy for active background per rank (pJ)
system.mem_ctrls.dram.rank1.preBackEnergy  74450181120                       # Energy for precharge background per rank (pJ)
system.mem_ctrls.dram.rank1.actPowerDownEnergy            0                       # Energy for active power-down per rank (pJ)
system.mem_ctrls.dram.rank1.prePowerDownEnergy            0                       # Energy for precharge power-down per rank (pJ)
system.mem_ctrls.dram.rank1.selfRefreshEnergy            0                       # Energy for self refresh per rank (pJ)
system.mem_ctrls.dram.rank1.totalEnergy  212603149185                       # Total energy per rank (pJ)
system.mem_ctrls.dram.rank1.averagePower   541.091469                       # Core power per rank (mW)
system.mem_ctrls.dram.rank1.totalIdleTime            0                       # Total Idle time Per DRAM Rank
system.mem_ctrls.dram.rank1.pwrStateTime::IDLE 191302030250                       # Time in different power states
system.mem_ctrls.dram.rank1.pwrStateTime::REF  13120120000                       # Time in different power states
system.mem_ctrls.dram.rank1.pwrStateTime::SREF            0                       # Time in different power states
system.mem_ctrls.dram.rank1.pwrStateTime::PRE_PDN            0                       # Time in different power states
system.mem_ctrls.dram.rank1.pwrStateTime::ACT 188493209750                       # Time in different power states
system.mem_ctrls.dram.rank1.pwrStateTime::ACT_PDN            0                       # Time in different power states
system.mem_ctrls.power_state.pwrStateResidencyTicks::UNDEFINED 392915360000                       # Cumulative time (in ticks) in various power states
system.membus.trans_dist::ReadResp                935                       # Transaction distribution
system.membus.trans_dist::WritebackDirty      2958605                       # Transaction distribution
system.membus.trans_dist::CleanEvict              261                       # Transaction distribution
system.membus.trans_dist::ReadExReq           2974963                       # Transaction distribution
system.membus.trans_dist::ReadExResp          2974963                       # Transaction distribution
system.membus.trans_dist::ReadSharedReq           935                       # Transaction distribution
system.membus.pkt_count_system.l2.mem_side_port::system.mem_ctrls.port      8910662                       # Packet count per connected requestor and responder (bytes)
system.membus.pkt_count::total                8910662                       # Packet count per connected requestor and responder (bytes)
system.membus.pkt_size_system.l2.mem_side_port::system.mem_ctrls.port    189904096                       # Cumulative packet size per connected requestor and responder (bytes)
system.membus.pkt_size::total               189904096                       # Cumulative packet size per connected requestor and responder (bytes)
system.membus.snoops                                0                       # Total snoops (count)
system.membus.snoopTraffic                          0                       # Total snoop traffic (bytes)
system.membus.snoop_fanout::samples           2975898                       # Request fanout histogram
system.membus.snoop_fanout::mean                    0                       # Request fanout histogram
system.membus.snoop_fanout::stdev                   0                       # Request fanout histogram
system.membus.snoop_fanout::underflows              0      0.00%      0.00% # Request fanout histogram
system.membus.snoop_fanout::0                 2975898    100.00%    100.00% # Request fanout histogram
system.membus.snoop_fanout::1                       0      0.00%    100.00% # Request fanout histogram
system.membus.snoop_fanout::overflows               0      0.00%    100.00% # Request fanout histogram
system.membus.snoop_fanout::min_value               0                       # Request fanout histogram
system.membus.snoop_fanout::max_value               0                       # Request fanout histogram
system.membus.snoop_fanout::total             2975898                       # Request fanout histogram
system.membus.power_state.pwrStateResidencyTicks::UNDEFINED 392915360000                       # Cumulative time (in ticks) in various power states
system.membus.reqLayer0.occupancy         11851974000                       # Layer occupancy (ticks)
system.membus.reqLayer0.utilization               3.0                       # Layer utilization (%)
system.membus.respLayer1.occupancy         9717027500                       # Layer occupancy (ticks)
system.membus.respLayer1.utilization              2.5                       # Layer utilization (%)
system.tol2bus.trans_dist::ReadResp             12690                       # Transaction distribution
system.tol2bus.trans_dist::WritebackDirty      5944208                       # Transaction distribution
system.tol2bus.trans_dist::WritebackClean          212                       # Transaction distribution
system.tol2bus.trans_dist::CleanEvict            6887                       # Transaction distribution
system.tol2bus.trans_dist::ReadExReq          2980776                       # Transaction distribution
system.tol2bus.trans_dist::ReadExResp         2980776                       # Transaction distribution
system.tol2bus.trans_dist::ReadCleanReq           861                       # Transaction distribution
system.tol2bus.trans_dist::ReadSharedReq        11829                       # Transaction distribution
system.tol2bus.pkt_count_system.cpu.icache.mem_side_port::system.l2.cpu_side_port         1934                       # Packet count per connected requestor and responder (bytes)
system.tol2bus.pkt_count_system.cpu.dcache.mem_side_port::system.l2.cpu_side_port      8976791                       # Packet count per connected requestor and responder (bytes)
system.tol2bus.pkt_count::total               8978725                       # Packet count per connected requestor and responder (bytes)
system.tol2bus.pkt_size_system.cpu.icache.mem_side_port::system.l2.cpu_side_port        34336                       # Cumulative packet size per connected requestor and responder (bytes)
system.tol2bus.pkt_size_system.cpu.dcache.mem_side_port::system.l2.cpu_side_port    191302656                       # Cumulative packet size per connected requestor and responder (bytes)
system.tol2bus.pkt_size::total              191336992                       # Cumulative packet size per connected requestor and responder (bytes)
system.tol2bus.snoops                         2959514                       # Total snoops (count)
system.tol2bus.snoopTraffic                  94675360                       # Total snoop traffic (bytes)
system.tol2bus.snoop_fanout::samples          5952980                       # Request fanout histogram
system.tol2bus.snoop_fanout::mean            0.001090                       # Request fanout histogram
system.tol2bus.snoop_fanout::stdev           0.032993                       # Request fanout histogram
system.tol2bus.snoop_fanout::underflows             0      0.00%      0.00% # Request fanout histogram
system.tol2bus.snoop_fanout::0                5946493     99.89%     99.89% # Request fanout histogram
system.tol2bus.snoop_fanout::1                   6487      0.11%    100.00% # Request fanout histogram
system.tol2bus.snoop_fanout::2                      0      0.00%    100.00% # Request fanout histogram
system.tol2bus.snoop_fanout::overflows              0      0.00%    100.00% # Request fanout histogram
system.tol2bus.snoop_fanout::min_value              0                       # Request fanout histogram
system.tol2bus.snoop_fanout::max_value              1                       # Request fanout histogram
system.tol2bus.snoop_fanout::total            5952980                       # Request fanout histogram
system.tol2bus.power_state.pwrStateResidencyTicks::UNDEFINED 392915360000                       # Cumulative time (in ticks) in various power states
system.tol2bus.reqLayer0.occupancy         8971074000                       # Layer occupancy (ticks)
system.tol2bus.reqLayer0.utilization              2.3                       # Layer utilization (%)
system.tol2bus.respLayer0.occupancy           1722999                       # Layer occupancy (ticks)
system.tol2bus.respLayer0.utilization             0.0                       # Layer utilization (%)
system.tol2bus.respLayer1.occupancy        5985214995                       # Layer occupancy (ticks)
system.tol2bus.respLayer1.utilization             1.5                       # Layer utilization (%)
system.voltage_domain.voltage                       1                       # Voltage in Volts

---------- End Simulation Statistics   ----------
