
---------- Begin Simulation Statistics ----------
final_tick                               170580071000                       # Number of ticks from beginning of simulation (restored from checkpoints and never reset)
host_inst_rate                                 374384                       # Simulator instruction rate (inst/s)
host_mem_usage                                 662172                       # Number of bytes of host memory used
host_op_rate                                   375119                       # Simulator op (including micro ops) rate (op/s)
host_seconds                                   267.11                       # Real time elapsed on the host
host_tick_rate                              638624738                       # Simulator tick rate (ticks/s)
sim_freq                                 1000000000000                       # Frequency of simulated ticks
sim_insts                                   100000001                       # Number of instructions simulated
sim_ops                                     100196375                       # Number of ops (including micro ops) simulated
sim_seconds                                  0.170580                       # Number of seconds simulated
sim_ticks                                170580071000                       # Number of ticks simulated
system.cpu.committedInsts                   100000001                       # Number of instructions committed
system.cpu.committedOps                     100196375                       # Number of ops (including micro ops) committed
system.cpu.cpi                               1.705801                       # CPI: cycles per instruction
system.cpu.discardedOps                        191373                       # Number of ops (including micro ops) which were discarded before commit
system.cpu.idleCycles                        37427660                       # Total number of cycles that the object has spent stopped
system.cpu.ipc                               0.586235                       # IPC: instructions per cycle
system.cpu.numCycles                        170580071                       # number of cpu cycles simulated
system.cpu.numFetchSuspends                         0                       # Number of times Execute suspended instruction fetching
system.cpu.numWorkItemsCompleted                    0                       # number of work items this cpu completed
system.cpu.numWorkItemsStarted                      0                       # number of work items this cpu started
system.cpu.op_class_0::No_OpClass                   0      0.00%      0.00% # Class of committed instruction
system.cpu.op_class_0::IntAlu                46526221     46.44%     46.44% # Class of committed instruction
system.cpu.op_class_0::IntMult                  20720      0.02%     46.46% # Class of committed instruction
system.cpu.op_class_0::IntDiv                       0      0.00%     46.46% # Class of committed instruction
system.cpu.op_class_0::FloatAdd                     0      0.00%     46.46% # Class of committed instruction
system.cpu.op_class_0::FloatCmp                     0      0.00%     46.46% # Class of committed instruction
system.cpu.op_class_0::FloatCvt                     0      0.00%     46.46% # Class of committed instruction
system.cpu.op_class_0::FloatMult                    0      0.00%     46.46% # Class of committed instruction
system.cpu.op_class_0::FloatMultAcc                 0      0.00%     46.46% # Class of committed instruction
system.cpu.op_class_0::FloatDiv                     0      0.00%     46.46% # Class of committed instruction
system.cpu.op_class_0::FloatMisc                    0      0.00%     46.46% # Class of committed instruction
system.cpu.op_class_0::FloatSqrt                    0      0.00%     46.46% # Class of committed instruction
system.cpu.op_class_0::SimdAdd                      0      0.00%     46.46% # Class of committed instruction
system.cpu.op_class_0::SimdAddAcc                   0      0.00%     46.46% # Class of committed instruction
system.cpu.op_class_0::SimdAlu                      0      0.00%     46.46% # Class of committed instruction
system.cpu.op_class_0::SimdCmp                      0      0.00%     46.46% # Class of committed instruction
system.cpu.op_class_0::SimdCvt                      0      0.00%     46.46% # Class of committed instruction
system.cpu.op_class_0::SimdMisc                     0      0.00%     46.46% # Class of committed instruction
system.cpu.op_class_0::SimdMult                     0      0.00%     46.46% # Class of committed instruction
system.cpu.op_class_0::SimdMultAcc                  0      0.00%     46.46% # Class of committed instruction
system.cpu.op_class_0::SimdShift                    0      0.00%     46.46% # Class of committed instruction
system.cpu.op_class_0::SimdShiftAcc                 0      0.00%     46.46% # Class of committed instruction
system.cpu.op_class_0::SimdDiv                      0      0.00%     46.46% # Class of committed instruction
system.cpu.op_class_0::SimdSqrt                     0      0.00%     46.46% # Class of committed instruction
system.cpu.op_class_0::SimdFloatAdd                 0      0.00%     46.46% # Class of committed instruction
system.cpu.op_class_0::SimdFloatAlu                 0      0.00%     46.46% # Class of committed instruction
system.cpu.op_class_0::SimdFloatCmp                 0      0.00%     46.46% # Class of committed instruction
system.cpu.op_class_0::SimdFloatCvt                 0      0.00%     46.46% # Class of committed instruction
system.cpu.op_class_0::SimdFloatDiv                 0      0.00%     46.46% # Class of committed instruction
system.cpu.op_class_0::SimdFloatMisc               18      0.00%     46.46% # Class of committed instruction
system.cpu.op_class_0::SimdFloatMult                0      0.00%     46.46% # Class of committed instruction
system.cpu.op_class_0::SimdFloatMultAcc             0      0.00%     46.46% # Class of committed instruction
system.cpu.op_class_0::SimdFloatSqrt                0      0.00%     46.46% # Class of committed instruction
system.cpu.op_class_0::SimdReduceAdd                0      0.00%     46.46% # Class of committed instruction
system.cpu.op_class_0::SimdReduceAlu                0      0.00%     46.46% # Class of committed instruction
system.cpu.op_class_0::SimdReduceCmp                0      0.00%     46.46% # Class of committed instruction
system.cpu.op_class_0::SimdFloatReduceAdd            0      0.00%     46.46% # Class of committed instruction
system.cpu.op_class_0::SimdFloatReduceCmp            0      0.00%     46.46% # Class of committed instruction
system.cpu.op_class_0::SimdAes                      0      0.00%     46.46% # Class of committed instruction
system.cpu.op_class_0::SimdAesMix                   0      0.00%     46.46% # Class of committed instruction
system.cpu.op_class_0::SimdSha1Hash                 0      0.00%     46.46% # Class of committed instruction
system.cpu.op_class_0::SimdSha1Hash2                0      0.00%     46.46% # Class of committed instruction
system.cpu.op_class_0::SimdSha256Hash               0      0.00%     46.46% # Class of committed instruction
system.cpu.op_class_0::SimdSha256Hash2              0      0.00%     46.46% # Class of committed instruction
system.cpu.op_class_0::SimdShaSigma2                0      0.00%     46.46% # Class of committed instruction
system.cpu.op_class_0::SimdShaSigma3                0      0.00%     46.46% # Class of committed instruction
system.cpu.op_class_0::SimdPredAlu                  0      0.00%     46.46% # Class of committed instruction
system.cpu.op_class_0::MemRead               42691041     42.61%     89.06% # Class of committed instruction
system.cpu.op_class_0::MemWrite              10958375     10.94%    100.00% # Class of committed instruction
system.cpu.op_class_0::FloatMemRead                 0      0.00%    100.00% # Class of committed instruction
system.cpu.op_class_0::FloatMemWrite                0      0.00%    100.00% # Class of committed instruction
system.cpu.op_class_0::IprAccess                    0      0.00%    100.00% # Class of committed instruction
system.cpu.op_class_0::InstPrefetch                 0      0.00%    100.00% # Class of committed instruction
system.cpu.op_class_0::total                100196375                       # Class of committed instruction
system.cpu.tickCycles                       133152411                       # Number of cycles that the object actually ticked
system.cpu.workload.numSyscalls                    84                       # Number of system calls
system.membus.snoop_filter.hit_multi_requests            0                       # Number of requests hitting in the snoop filter with multiple (>1) holders of the requested data.
system.membus.snoop_filter.hit_multi_snoops            0                       # Number of snoops hitting in the snoop filter with multiple (>1) holders of the requested data.
system.membus.snoop_filter.hit_single_requests       271931                       # Number of requests hitting in the snoop filter with a single holder of the requested data.
system.membus.snoop_filter.hit_single_snoops            0                       # Number of snoops hitting in the snoop filter with a single holder of the requested data.
system.membus.snoop_filter.tot_requests        552555                       # Total number of requests made to the snoop filter.
system.membus.snoop_filter.tot_snoops               0                       # Total number of snoops made to the snoop filter.
system.tol2bus.snoop_filter.hit_multi_requests         1389                       # Number of requests hitting in the snoop filter with multiple (>1) holders of the requested data.
system.tol2bus.snoop_filter.hit_multi_snoops            0                       # Number of snoops hitting in the snoop filter with multiple (>1) holders of the requested data.
system.tol2bus.snoop_filter.hit_single_requests       981787                       # Number of requests hitting in the snoop filter with a single holder of the requested data.
system.tol2bus.snoop_filter.hit_single_snoops          601                       # Number of snoops hitting in the snoop filter with a single holder of the requested data.
system.tol2bus.snoop_filter.tot_requests      1964595                       # Total number of requests made to the snoop filter.
system.tol2bus.snoop_filter.tot_snoops            601                       # Total number of snoops made to the snoop filter.
system.clk_domain.clock                          1000                       # Clock period in ticks
system.cpu.branchPred.lookups                 4485609                       # Number of BP lookups
system.cpu.branchPred.condPredicted           3735017                       # Number of conditional branches predicted
system.cpu.branchPred.condIncorrect             80994                       # Number of conditional branches incorrect
system.cpu.branchPred.BTBLookups              2104010                       # Number of BTB lookups
system.cpu.branchPred.BTBHits                 2101978                       # Number of BTB hits
system.cpu.branchPred.BTBHitPct             99.903423                       # BTB Hit Percentage
system.cpu.branchPred.RASUsed                   65399                       # Number of times the RAS was used to get a target.
system.cpu.branchPred.RASIncorrect                 14                       # Number of incorrect RAS predictions.
system.cpu.branchPred.indirectLookups             707                       # Number of indirect predictor lookups.
system.cpu.branchPred.indirectHits                288                       # Number of indirect target hits.
system.cpu.branchPred.indirectMisses              419                       # Number of indirect misses.
system.cpu.branchPred.indirectMispredicted          169                       # Number of mispredicted indirect branches.
system.cpu.dcache.demand_hits::.cpu.data     51038884                       # number of demand (read+write) hits
system.cpu.dcache.demand_hits::total         51038884                       # number of demand (read+write) hits
system.cpu.dcache.overall_hits::.cpu.data     51039301                       # number of overall hits
system.cpu.dcache.overall_hits::total        51039301                       # number of overall hits
system.cpu.dcache.demand_misses::.cpu.data      1033434                       # number of demand (read+write) misses
system.cpu.dcache.demand_misses::total        1033434                       # number of demand (read+write) misses
system.cpu.dcache.overall_misses::.cpu.data      1041436                       # number of overall misses
system.cpu.dcache.overall_misses::total       1041436                       # number of overall misses
system.cpu.dcache.demand_miss_latency::.cpu.data  51026508903                       # number of demand (read+write) miss cycles
system.cpu.dcache.demand_miss_latency::total  51026508903                       # number of demand (read+write) miss cycles
system.cpu.dcache.overall_miss_latency::.cpu.data  51026508903                       # number of overall miss cycles
system.cpu.dcache.overall_miss_latency::total  51026508903                       # number of overall miss cycles
system.cpu.dcache.demand_accesses::.cpu.data     52072318                       # number of demand (read+write) accesses
system.cpu.dcache.demand_accesses::total     52072318                       # number of demand (read+write) accesses
system.cpu.dcache.overall_accesses::.cpu.data     52080737                       # number of overall (read+write) accesses
system.cpu.dcache.overall_accesses::total     52080737                       # number of overall (read+write) accesses
system.cpu.dcache.demand_miss_rate::.cpu.data     0.019846                       # miss rate for demand accesses
system.cpu.dcache.demand_miss_rate::total     0.019846                       # miss rate for demand accesses
system.cpu.dcache.overall_miss_rate::.cpu.data     0.019997                       # miss rate for overall accesses
system.cpu.dcache.overall_miss_rate::total     0.019997                       # miss rate for overall accesses
system.cpu.dcache.demand_avg_miss_latency::.cpu.data 49375.682340                       # average overall miss latency
system.cpu.dcache.demand_avg_miss_latency::total 49375.682340                       # average overall miss latency
system.cpu.dcache.overall_avg_miss_latency::.cpu.data 48996.298287                       # average overall miss latency
system.cpu.dcache.overall_avg_miss_latency::total 48996.298287                       # average overall miss latency
system.cpu.dcache.blocked_cycles::no_mshrs        84756                       # number of cycles access was blocked
system.cpu.dcache.blocked_cycles::no_targets            0                       # number of cycles access was blocked
system.cpu.dcache.blocked::no_mshrs              3977                       # number of cycles access was blocked
system.cpu.dcache.blocked::no_targets               0                       # number of cycles access was blocked
system.cpu.dcache.avg_blocked_cycles::no_mshrs    21.311541                       # average number of cycles each access was blocked
system.cpu.dcache.avg_blocked_cycles::no_targets          nan                       # average number of cycles each access was blocked
system.cpu.dcache.writebacks::.writebacks       873230                       # number of writebacks
system.cpu.dcache.writebacks::total            873230                       # number of writebacks
system.cpu.dcache.demand_mshr_hits::.cpu.data        59379                       # number of demand (read+write) MSHR hits
system.cpu.dcache.demand_mshr_hits::total        59379                       # number of demand (read+write) MSHR hits
system.cpu.dcache.overall_mshr_hits::.cpu.data        59379                       # number of overall MSHR hits
system.cpu.dcache.overall_mshr_hits::total        59379                       # number of overall MSHR hits
system.cpu.dcache.demand_mshr_misses::.cpu.data       974055                       # number of demand (read+write) MSHR misses
system.cpu.dcache.demand_mshr_misses::total       974055                       # number of demand (read+write) MSHR misses
system.cpu.dcache.overall_mshr_misses::.cpu.data       982051                       # number of overall MSHR misses
system.cpu.dcache.overall_mshr_misses::total       982051                       # number of overall MSHR misses
system.cpu.dcache.demand_mshr_miss_latency::.cpu.data  47183587998                       # number of demand (read+write) MSHR miss cycles
system.cpu.dcache.demand_mshr_miss_latency::total  47183587998                       # number of demand (read+write) MSHR miss cycles
system.cpu.dcache.overall_mshr_miss_latency::.cpu.data  47965580997                       # number of overall MSHR miss cycles
system.cpu.dcache.overall_mshr_miss_latency::total  47965580997                       # number of overall MSHR miss cycles
system.cpu.dcache.demand_mshr_miss_rate::.cpu.data     0.018706                       # mshr miss rate for demand accesses
system.cpu.dcache.demand_mshr_miss_rate::total     0.018706                       # mshr miss rate for demand accesses
system.cpu.dcache.overall_mshr_miss_rate::.cpu.data     0.018856                       # mshr miss rate for overall accesses
system.cpu.dcache.overall_mshr_miss_rate::total     0.018856                       # mshr miss rate for overall accesses
system.cpu.dcache.demand_avg_mshr_miss_latency::.cpu.data 48440.373488                       # average overall mshr miss latency
system.cpu.dcache.demand_avg_mshr_miss_latency::total 48440.373488                       # average overall mshr miss latency
system.cpu.dcache.overall_avg_mshr_miss_latency::.cpu.data 48842.250552                       # average overall mshr miss latency
system.cpu.dcache.overall_avg_mshr_miss_latency::total 48842.250552                       # average overall mshr miss latency
system.cpu.dcache.replacements                 981539                       # number of replacements
system.cpu.dcache.ReadReq_hits::.cpu.data     40527173                       # number of ReadReq hits
system.cpu.dcache.ReadReq_hits::total        40527173                       # number of ReadReq hits
system.cpu.dcache.ReadReq_misses::.cpu.data       595905                       # number of ReadReq misses
system.cpu.dcache.ReadReq_misses::total        595905                       # number of ReadReq misses
system.cpu.dcache.ReadReq_miss_latency::.cpu.data  24189990000                       # number of ReadReq miss cycles
system.cpu.dcache.ReadReq_miss_latency::total  24189990000                       # number of ReadReq miss cycles
system.cpu.dcache.ReadReq_accesses::.cpu.data     41123078                       # number of ReadReq accesses(hits+misses)
system.cpu.dcache.ReadReq_accesses::total     41123078                       # number of ReadReq accesses(hits+misses)
system.cpu.dcache.ReadReq_miss_rate::.cpu.data     0.014491                       # miss rate for ReadReq accesses
system.cpu.dcache.ReadReq_miss_rate::total     0.014491                       # miss rate for ReadReq accesses
system.cpu.dcache.ReadReq_avg_miss_latency::.cpu.data 40593.702016                       # average ReadReq miss latency
system.cpu.dcache.ReadReq_avg_miss_latency::total 40593.702016                       # average ReadReq miss latency
system.cpu.dcache.ReadReq_mshr_hits::.cpu.data         4433                       # number of ReadReq MSHR hits
system.cpu.dcache.ReadReq_mshr_hits::total         4433                       # number of ReadReq MSHR hits
system.cpu.dcache.ReadReq_mshr_misses::.cpu.data       591472                       # number of ReadReq MSHR misses
system.cpu.dcache.ReadReq_mshr_misses::total       591472                       # number of ReadReq MSHR misses
system.cpu.dcache.ReadReq_mshr_miss_latency::.cpu.data  22770049000                       # number of ReadReq MSHR miss cycles
system.cpu.dcache.ReadReq_mshr_miss_latency::total  22770049000                       # number of ReadReq MSHR miss cycles
system.cpu.dcache.ReadReq_mshr_miss_rate::.cpu.data     0.014383                       # mshr miss rate for ReadReq accesses
system.cpu.dcache.ReadReq_mshr_miss_rate::total     0.014383                       # mshr miss rate for ReadReq accesses
system.cpu.dcache.ReadReq_avg_mshr_miss_latency::.cpu.data 38497.255999                       # average ReadReq mshr miss latency
system.cpu.dcache.ReadReq_avg_mshr_miss_latency::total 38497.255999                       # average ReadReq mshr miss latency
system.cpu.dcache.WriteReq_hits::.cpu.data     10511711                       # number of WriteReq hits
system.cpu.dcache.WriteReq_hits::total       10511711                       # number of WriteReq hits
system.cpu.dcache.WriteReq_misses::.cpu.data       437529                       # number of WriteReq misses
system.cpu.dcache.WriteReq_misses::total       437529                       # number of WriteReq misses
system.cpu.dcache.WriteReq_miss_latency::.cpu.data  26836518903                       # number of WriteReq miss cycles
system.cpu.dcache.WriteReq_miss_latency::total  26836518903                       # number of WriteReq miss cycles
system.cpu.dcache.WriteReq_accesses::.cpu.data     10949240                       # number of WriteReq accesses(hits+misses)
system.cpu.dcache.WriteReq_accesses::total     10949240                       # number of WriteReq accesses(hits+misses)
system.cpu.dcache.WriteReq_miss_rate::.cpu.data     0.039960                       # miss rate for WriteReq accesses
system.cpu.dcache.WriteReq_miss_rate::total     0.039960                       # miss rate for WriteReq accesses
system.cpu.dcache.WriteReq_avg_miss_latency::.cpu.data 61336.548898                       # average WriteReq miss latency
system.cpu.dcache.WriteReq_avg_miss_latency::total 61336.548898                       # average WriteReq miss latency
system.cpu.dcache.WriteReq_mshr_hits::.cpu.data        54946                       # number of WriteReq MSHR hits
system.cpu.dcache.WriteReq_mshr_hits::total        54946                       # number of WriteReq MSHR hits
system.cpu.dcache.WriteReq_mshr_misses::.cpu.data       382583                       # number of WriteReq MSHR misses
system.cpu.dcache.WriteReq_mshr_misses::total       382583                       # number of WriteReq MSHR misses
system.cpu.dcache.WriteReq_mshr_miss_latency::.cpu.data  24413538998                       # number of WriteReq MSHR miss cycles
system.cpu.dcache.WriteReq_mshr_miss_latency::total  24413538998                       # number of WriteReq MSHR miss cycles
system.cpu.dcache.WriteReq_mshr_miss_rate::.cpu.data     0.034942                       # mshr miss rate for WriteReq accesses
system.cpu.dcache.WriteReq_mshr_miss_rate::total     0.034942                       # mshr miss rate for WriteReq accesses
system.cpu.dcache.WriteReq_avg_mshr_miss_latency::.cpu.data 63812.398873                       # average WriteReq mshr miss latency
system.cpu.dcache.WriteReq_avg_mshr_miss_latency::total 63812.398873                       # average WriteReq mshr miss latency
system.cpu.dcache.SoftPFReq_hits::.cpu.data          417                       # number of SoftPFReq hits
system.cpu.dcache.SoftPFReq_hits::total           417                       # number of SoftPFReq hits
system.cpu.dcache.SoftPFReq_misses::.cpu.data         8002                       # number of SoftPFReq misses
system.cpu.dcache.SoftPFReq_misses::total         8002                       # number of SoftPFReq misses
system.cpu.dcache.SoftPFReq_accesses::.cpu.data         8419                       # number of SoftPFReq accesses(hits+misses)
system.cpu.dcache.SoftPFReq_accesses::total         8419                       # number of SoftPFReq accesses(hits+misses)
system.cpu.dcache.SoftPFReq_miss_rate::.cpu.data     0.950469                       # miss rate for SoftPFReq accesses
system.cpu.dcache.SoftPFReq_miss_rate::total     0.950469                       # miss rate for SoftPFReq accesses
system.cpu.dcache.SoftPFReq_mshr_misses::.cpu.data         7996                       # number of SoftPFReq MSHR misses
system.cpu.dcache.SoftPFReq_mshr_misses::total         7996                       # number of SoftPFReq MSHR misses
system.cpu.dcache.SoftPFReq_mshr_miss_latency::.cpu.data    781992999                       # number of SoftPFReq MSHR miss cycles
system.cpu.dcache.SoftPFReq_mshr_miss_latency::total    781992999                       # number of SoftPFReq MSHR miss cycles
system.cpu.dcache.SoftPFReq_mshr_miss_rate::.cpu.data     0.949757                       # mshr miss rate for SoftPFReq accesses
system.cpu.dcache.SoftPFReq_mshr_miss_rate::total     0.949757                       # mshr miss rate for SoftPFReq accesses
system.cpu.dcache.SoftPFReq_avg_mshr_miss_latency::.cpu.data 97798.023887                       # average SoftPFReq mshr miss latency
system.cpu.dcache.SoftPFReq_avg_mshr_miss_latency::total 97798.023887                       # average SoftPFReq mshr miss latency
system.cpu.dcache.LoadLockedReq_hits::.cpu.data           38                       # number of LoadLockedReq hits
system.cpu.dcache.LoadLockedReq_hits::total           38                       # number of LoadLockedReq hits
system.cpu.dcache.LoadLockedReq_accesses::.cpu.data           38                       # number of LoadLockedReq accesses(hits+misses)
system.cpu.dcache.LoadLockedReq_accesses::total           38                       # number of LoadLockedReq accesses(hits+misses)
system.cpu.dcache.StoreCondReq_hits::.cpu.data           38                       # number of StoreCondReq hits
system.cpu.dcache.StoreCondReq_hits::total           38                       # number of StoreCondReq hits
system.cpu.dcache.StoreCondReq_accesses::.cpu.data           38                       # number of StoreCondReq accesses(hits+misses)
system.cpu.dcache.StoreCondReq_accesses::total           38                       # number of StoreCondReq accesses(hits+misses)
system.cpu.dcache.power_state.pwrStateResidencyTicks::UNDEFINED 170580071000                       # Cumulative time (in ticks) in various power states
system.cpu.dcache.tags.tagsinuse           507.562108                       # Cycle average of tags in use
system.cpu.dcache.tags.total_refs            52021428                       # Total number of references to valid blocks.
system.cpu.dcache.tags.sampled_refs            982051                       # Sample count of references to valid blocks.
system.cpu.dcache.tags.avg_refs             52.972226                       # Average number of references to valid blocks.
system.cpu.dcache.tags.warmup_cycle            223000                       # Cycle when the warmup percentage was hit.
system.cpu.dcache.tags.occ_blocks::.cpu.data   507.562108                       # Average occupied blocks per requestor
system.cpu.dcache.tags.occ_percent::.cpu.data     0.991332                       # Average percentage of cache occupancy
system.cpu.dcache.tags.occ_percent::total     0.991332                       # Average percentage of cache occupancy
system.cpu.dcache.tags.occ_task_id_blocks::1024          512                       # Occupied blocks per task id
system.cpu.dcache.tags.age_task_id_blocks_1024::0           62                       # Occupied blocks per task id
system.cpu.dcache.tags.age_task_id_blocks_1024::1          176                       # Occupied blocks per task id
system.cpu.dcache.tags.age_task_id_blocks_1024::2          270                       # Occupied blocks per task id
system.cpu.dcache.tags.age_task_id_blocks_1024::3            4                       # Occupied blocks per task id
system.cpu.dcache.tags.occ_task_id_percent::1024            1                       # Percentage of cache occupancy per task id
system.cpu.dcache.tags.tag_accesses          53062864                       # Number of tag accesses
system.cpu.dcache.tags.data_accesses         53062864                       # Number of data accesses
system.cpu.dcache.tags.power_state.pwrStateResidencyTicks::UNDEFINED 170580071000                       # Cumulative time (in ticks) in various power states
system.cpu.dtb.instHits                             0                       # ITB inst hits
system.cpu.dtb.instMisses                           0                       # ITB inst misses
system.cpu.dtb.readHits                             0                       # DTB read hits
system.cpu.dtb.readMisses                           0                       # DTB read misses
system.cpu.dtb.writeHits                            0                       # DTB write hits
system.cpu.dtb.writeMisses                          0                       # DTB write misses
system.cpu.dtb.inserts                              0                       # Number of times an entry is inserted into the TLB
system.cpu.dtb.flushTlb                             0                       # Number of times complete TLB was flushed
system.cpu.dtb.flushTlbMva                          0                       # Number of times TLB was flushed by MVA
system.cpu.dtb.flushTlbMvaAsid                      0                       # Number of times TLB was flushed by MVA & ASID
system.cpu.dtb.flushTlbAsid                         0                       # Number of times TLB was flushed by ASID
system.cpu.dtb.flushedEntries                       0                       # Number of entries that have been flushed from TLB
system.cpu.dtb.alignFaults                          0                       # Number of TLB faults due to alignment restrictions
system.cpu.dtb.prefetchFaults                       0                       # Number of TLB faults due to prefetch
system.cpu.dtb.domainFaults                         0                       # Number of TLB faults due to domain restrictions
system.cpu.dtb.permsFaults                          0                       # Number of TLB faults due to permissions restrictions
system.cpu.dtb.readAccesses                         0                       # DTB read accesses
system.cpu.dtb.writeAccesses                        0                       # DTB write accesses
system.cpu.dtb.instAccesses                         0                       # ITB inst accesses
system.cpu.dtb.hits                                 0                       # Total TLB (inst and data) hits
system.cpu.dtb.misses                               0                       # Total TLB (inst and data) misses
system.cpu.dtb.accesses                             0                       # Total TLB (inst and data) accesses
system.cpu.dtb.stage2_mmu.stage2_tlb.instHits            0                       # ITB inst hits
system.cpu.dtb.stage2_mmu.stage2_tlb.instMisses            0                       # ITB inst misses
system.cpu.dtb.stage2_mmu.stage2_tlb.readHits            0                       # DTB read hits
system.cpu.dtb.stage2_mmu.stage2_tlb.readMisses            0                       # DTB read misses
system.cpu.dtb.stage2_mmu.stage2_tlb.writeHits            0                       # DTB write hits
system.cpu.dtb.stage2_mmu.stage2_tlb.writeMisses            0                       # DTB write misses
system.cpu.dtb.stage2_mmu.stage2_tlb.inserts            0                       # Number of times an entry is inserted into the TLB
system.cpu.dtb.stage2_mmu.stage2_tlb.flushTlb            0                       # Number of times complete TLB was flushed
system.cpu.dtb.stage2_mmu.stage2_tlb.flushTlbMva            0                       # Number of times TLB was flushed by MVA
system.cpu.dtb.stage2_mmu.stage2_tlb.flushTlbMvaAsid            0                       # Number of times TLB was flushed by MVA & ASID
system.cpu.dtb.stage2_mmu.stage2_tlb.flushTlbAsid            0                       # Number of times TLB was flushed by ASID
system.cpu.dtb.stage2_mmu.stage2_tlb.flushedEntries            0                       # Number of entries that have been flushed from TLB
system.cpu.dtb.stage2_mmu.stage2_tlb.alignFaults            0                       # Number of TLB faults due to alignment restrictions
system.cpu.dtb.stage2_mmu.stage2_tlb.prefetchFaults            0                       # Number of TLB faults due to prefetch
system.cpu.dtb.stage2_mmu.stage2_tlb.domainFaults            0                       # Number of TLB faults due to domain restrictions
system.cpu.dtb.stage2_mmu.stage2_tlb.permsFaults            0                       # Number of TLB faults due to permissions restrictions
system.cpu.dtb.stage2_mmu.stage2_tlb.readAccesses            0                       # DTB read accesses
system.cpu.dtb.stage2_mmu.stage2_tlb.writeAccesses            0                       # DTB write accesses
system.cpu.dtb.stage2_mmu.stage2_tlb.instAccesses            0                       # ITB inst accesses
system.cpu.dtb.stage2_mmu.stage2_tlb.hits            0                       # Total TLB (inst and data) hits
system.cpu.dtb.stage2_mmu.stage2_tlb.misses            0                       # Total TLB (inst and data) misses
system.cpu.dtb.stage2_mmu.stage2_tlb.accesses            0                       # Total TLB (inst and data) accesses
system.cpu.dtb.stage2_mmu.stage2_tlb.walker.walks            0                       # Table walker walks requested
system.cpu.dtb.stage2_mmu.stage2_tlb.walker.requestOrigin_Requested::Data            0                       # Table walker requests started/completed, data/inst
system.cpu.dtb.stage2_mmu.stage2_tlb.walker.requestOrigin_Requested::Inst            0                       # Table walker requests started/completed, data/inst
system.cpu.dtb.stage2_mmu.stage2_tlb.walker.requestOrigin_Requested::total            0                       # Table walker requests started/completed, data/inst
system.cpu.dtb.stage2_mmu.stage2_tlb.walker.requestOrigin_Completed::Data            0                       # Table walker requests started/completed, data/inst
system.cpu.dtb.stage2_mmu.stage2_tlb.walker.requestOrigin_Completed::Inst            0                       # Table walker requests started/completed, data/inst
system.cpu.dtb.stage2_mmu.stage2_tlb.walker.requestOrigin_Completed::total            0                       # Table walker requests started/completed, data/inst
system.cpu.dtb.stage2_mmu.stage2_tlb.walker.requestOrigin::total            0                       # Table walker requests started/completed, data/inst
system.cpu.dtb.stage2_mmu.stage2_tlb.walker.power_state.pwrStateResidencyTicks::UNDEFINED 170580071000                       # Cumulative time (in ticks) in various power states
system.cpu.dtb.walker.walks                         0                       # Table walker walks requested
system.cpu.dtb.walker.requestOrigin_Requested::Data            0                       # Table walker requests started/completed, data/inst
system.cpu.dtb.walker.requestOrigin_Requested::Inst            0                       # Table walker requests started/completed, data/inst
system.cpu.dtb.walker.requestOrigin_Requested::total            0                       # Table walker requests started/completed, data/inst
system.cpu.dtb.walker.requestOrigin_Completed::Data            0                       # Table walker requests started/completed, data/inst
system.cpu.dtb.walker.requestOrigin_Completed::Inst            0                       # Table walker requests started/completed, data/inst
system.cpu.dtb.walker.requestOrigin_Completed::total            0                       # Table walker requests started/completed, data/inst
system.cpu.dtb.walker.requestOrigin::total            0                       # Table walker requests started/completed, data/inst
system.cpu.dtb.walker.power_state.pwrStateResidencyTicks::UNDEFINED 170580071000                       # Cumulative time (in ticks) in various power states
system.cpu.fetch2.intInstructions            42685262                       # Number of integer instructions successfully decoded
system.cpu.fetch2.fpInstructions                    0                       # Number of floating point instructions successfully decoded
system.cpu.fetch2.vecInstructions                   0                       # Number of SIMD instructions successfully decoded
system.cpu.fetch2.loadInstructions           43474623                       # Number of memory load instructions successfully decoded
system.cpu.fetch2.storeInstructions          11025907                       # Number of memory store instructions successfully decoded
system.cpu.fetch2.amoInstructions                   0                       # Number of memory atomic instructions successfully decoded
system.cpu.icache.demand_hits::.cpu.inst      9700877                       # number of demand (read+write) hits
system.cpu.icache.demand_hits::total          9700877                       # number of demand (read+write) hits
system.cpu.icache.overall_hits::.cpu.inst      9700877                       # number of overall hits
system.cpu.icache.overall_hits::total         9700877                       # number of overall hits
system.cpu.icache.demand_misses::.cpu.inst          759                       # number of demand (read+write) misses
system.cpu.icache.demand_misses::total            759                       # number of demand (read+write) misses
system.cpu.icache.overall_misses::.cpu.inst          759                       # number of overall misses
system.cpu.icache.overall_misses::total           759                       # number of overall misses
system.cpu.icache.demand_miss_latency::.cpu.inst     71393000                       # number of demand (read+write) miss cycles
system.cpu.icache.demand_miss_latency::total     71393000                       # number of demand (read+write) miss cycles
system.cpu.icache.overall_miss_latency::.cpu.inst     71393000                       # number of overall miss cycles
system.cpu.icache.overall_miss_latency::total     71393000                       # number of overall miss cycles
system.cpu.icache.demand_accesses::.cpu.inst      9701636                       # number of demand (read+write) accesses
system.cpu.icache.demand_accesses::total      9701636                       # number of demand (read+write) accesses
system.cpu.icache.overall_accesses::.cpu.inst      9701636                       # number of overall (read+write) accesses
system.cpu.icache.overall_accesses::total      9701636                       # number of overall (read+write) accesses
system.cpu.icache.demand_miss_rate::.cpu.inst     0.000078                       # miss rate for demand accesses
system.cpu.icache.demand_miss_rate::total     0.000078                       # miss rate for demand accesses
system.cpu.icache.overall_miss_rate::.cpu.inst     0.000078                       # miss rate for overall accesses
system.cpu.icache.overall_miss_rate::total     0.000078                       # miss rate for overall accesses
system.cpu.icache.demand_avg_miss_latency::.cpu.inst 94061.923584                       # average overall miss latency
system.cpu.icache.demand_avg_miss_latency::total 94061.923584                       # average overall miss latency
system.cpu.icache.overall_avg_miss_latency::.cpu.inst 94061.923584                       # average overall miss latency
system.cpu.icache.overall_avg_miss_latency::total 94061.923584                       # average overall miss latency
system.cpu.icache.blocked_cycles::no_mshrs            0                       # number of cycles access was blocked
system.cpu.icache.blocked_cycles::no_targets            0                       # number of cycles access was blocked
system.cpu.icache.blocked::no_mshrs                 0                       # number of cycles access was blocked
system.cpu.icache.blocked::no_targets               0                       # number of cycles access was blocked
system.cpu.icache.avg_blocked_cycles::no_mshrs          nan                       # average number of cycles each access was blocked
system.cpu.icache.avg_blocked_cycles::no_targets          nan                       # average number of cycles each access was blocked
system.cpu.icache.writebacks::.writebacks          246                       # number of writebacks
system.cpu.icache.writebacks::total               246                       # number of writebacks
system.cpu.icache.demand_mshr_misses::.cpu.inst          759                       # number of demand (read+write) MSHR misses
system.cpu.icache.demand_mshr_misses::total          759                       # number of demand (read+write) MSHR misses
system.cpu.icache.overall_mshr_misses::.cpu.inst          759                       # number of overall MSHR misses
system.cpu.icache.overall_mshr_misses::total          759                       # number of overall MSHR misses
system.cpu.icache.demand_mshr_miss_latency::.cpu.inst     69875000                       # number of demand (read+write) MSHR miss cycles
system.cpu.icache.demand_mshr_miss_latency::total     69875000                       # number of demand (read+write) MSHR miss cycles
system.cpu.icache.overall_mshr_miss_latency::.cpu.inst     69875000                       # number of overall MSHR miss cycles
system.cpu.icache.overall_mshr_miss_latency::total     69875000                       # number of overall MSHR miss cycles
system.cpu.icache.demand_mshr_miss_rate::.cpu.inst     0.000078                       # mshr miss rate for demand accesses
system.cpu.icache.demand_mshr_miss_rate::total     0.000078                       # mshr miss rate for demand accesses
system.cpu.icache.overall_mshr_miss_rate::.cpu.inst     0.000078                       # mshr miss rate for overall accesses
system.cpu.icache.overall_mshr_miss_rate::total     0.000078                       # mshr miss rate for overall accesses
system.cpu.icache.demand_avg_mshr_miss_latency::.cpu.inst 92061.923584                       # average overall mshr miss latency
system.cpu.icache.demand_avg_mshr_miss_latency::total 92061.923584                       # average overall mshr miss latency
system.cpu.icache.overall_avg_mshr_miss_latency::.cpu.inst 92061.923584                       # average overall mshr miss latency
system.cpu.icache.overall_avg_mshr_miss_latency::total 92061.923584                       # average overall mshr miss latency
system.cpu.icache.replacements                    246                       # number of replacements
system.cpu.icache.ReadReq_hits::.cpu.inst      9700877                       # number of ReadReq hits
system.cpu.icache.ReadReq_hits::total         9700877                       # number of ReadReq hits
system.cpu.icache.ReadReq_misses::.cpu.inst          759                       # number of ReadReq misses
system.cpu.icache.ReadReq_misses::total           759                       # number of ReadReq misses
system.cpu.icache.ReadReq_miss_latency::.cpu.inst     71393000                       # number of ReadReq miss cycles
system.cpu.icache.ReadReq_miss_latency::total     71393000                       # number of ReadReq miss cycles
system.cpu.icache.ReadReq_accesses::.cpu.inst      9701636                       # number of ReadReq accesses(hits+misses)
system.cpu.icache.ReadReq_accesses::total      9701636                       # number of ReadReq accesses(hits+misses)
system.cpu.icache.ReadReq_miss_rate::.cpu.inst     0.000078                       # miss rate for ReadReq accesses
system.cpu.icache.ReadReq_miss_rate::total     0.000078                       # miss rate for ReadReq accesses
system.cpu.icache.ReadReq_avg_miss_latency::.cpu.inst 94061.923584                       # average ReadReq miss latency
system.cpu.icache.ReadReq_avg_miss_latency::total 94061.923584                       # average ReadReq miss latency
system.cpu.icache.ReadReq_mshr_misses::.cpu.inst          759                       # number of ReadReq MSHR misses
system.cpu.icache.ReadReq_mshr_misses::total          759                       # number of ReadReq MSHR misses
system.cpu.icache.ReadReq_mshr_miss_latency::.cpu.inst     69875000                       # number of ReadReq MSHR miss cycles
system.cpu.icache.ReadReq_mshr_miss_latency::total     69875000                       # number of ReadReq MSHR miss cycles
system.cpu.icache.ReadReq_mshr_miss_rate::.cpu.inst     0.000078                       # mshr miss rate for ReadReq accesses
system.cpu.icache.ReadReq_mshr_miss_rate::total     0.000078                       # mshr miss rate for ReadReq accesses
system.cpu.icache.ReadReq_avg_mshr_miss_latency::.cpu.inst 92061.923584                       # average ReadReq mshr miss latency
system.cpu.icache.ReadReq_avg_mshr_miss_latency::total 92061.923584                       # average ReadReq mshr miss latency
system.cpu.icache.power_state.pwrStateResidencyTicks::UNDEFINED 170580071000                       # Cumulative time (in ticks) in various power states
system.cpu.icache.tags.tagsinuse           422.836154                       # Cycle average of tags in use
system.cpu.icache.tags.total_refs             9701636                       # Total number of references to valid blocks.
system.cpu.icache.tags.sampled_refs               759                       # Sample count of references to valid blocks.
system.cpu.icache.tags.avg_refs          12782.129117                       # Average number of references to valid blocks.
system.cpu.icache.tags.warmup_cycle            108000                       # Cycle when the warmup percentage was hit.
system.cpu.icache.tags.occ_blocks::.cpu.inst   422.836154                       # Average occupied blocks per requestor
system.cpu.icache.tags.occ_percent::.cpu.inst     0.412926                       # Average percentage of cache occupancy
system.cpu.icache.tags.occ_percent::total     0.412926                       # Average percentage of cache occupancy
system.cpu.icache.tags.occ_task_id_blocks::1024          513                       # Occupied blocks per task id
system.cpu.icache.tags.age_task_id_blocks_1024::4          513                       # Occupied blocks per task id
system.cpu.icache.tags.occ_task_id_percent::1024     0.500977                       # Percentage of cache occupancy per task id
system.cpu.icache.tags.tag_accesses           9702395                       # Number of tag accesses
system.cpu.icache.tags.data_accesses          9702395                       # Number of data accesses
system.cpu.icache.tags.power_state.pwrStateResidencyTicks::UNDEFINED 170580071000                       # Cumulative time (in ticks) in various power states
system.cpu.itb.instHits                             0                       # ITB inst hits
system.cpu.itb.instMisses                           0                       # ITB inst misses
system.cpu.itb.readHits                             0                       # DTB read hits
system.cpu.itb.readMisses                           0                       # DTB read misses
system.cpu.itb.writeHits                            0                       # DTB write hits
system.cpu.itb.writeMisses                          0                       # DTB write misses
system.cpu.itb.inserts                              0                       # Number of times an entry is inserted into the TLB
system.cpu.itb.flushTlb                             0                       # Number of times complete TLB was flushed
system.cpu.itb.flushTlbMva                          0                       # Number of times TLB was flushed by MVA
system.cpu.itb.flushTlbMvaAsid                      0                       # Number of times TLB was flushed by MVA & ASID
system.cpu.itb.flushTlbAsid                         0                       # Number of times TLB was flushed by ASID
system.cpu.itb.flushedEntries                       0                       # Number of entries that have been flushed from TLB
system.cpu.itb.alignFaults                          0                       # Number of TLB faults due to alignment restrictions
system.cpu.itb.prefetchFaults                       0                       # Number of TLB faults due to prefetch
system.cpu.itb.domainFaults                         0                       # Number of TLB faults due to domain restrictions
system.cpu.itb.permsFaults                          0                       # Number of TLB faults due to permissions restrictions
system.cpu.itb.readAccesses                         0                       # DTB read accesses
system.cpu.itb.writeAccesses                        0                       # DTB write accesses
system.cpu.itb.instAccesses                         0                       # ITB inst accesses
system.cpu.itb.hits                                 0                       # Total TLB (inst and data) hits
system.cpu.itb.misses                               0                       # Total TLB (inst and data) misses
system.cpu.itb.accesses                             0                       # Total TLB (inst and data) accesses
system.cpu.itb.stage2_mmu.stage2_tlb.instHits            0                       # ITB inst hits
system.cpu.itb.stage2_mmu.stage2_tlb.instMisses            0                       # ITB inst misses
system.cpu.itb.stage2_mmu.stage2_tlb.readHits            0                       # DTB read hits
system.cpu.itb.stage2_mmu.stage2_tlb.readMisses            0                       # DTB read misses
system.cpu.itb.stage2_mmu.stage2_tlb.writeHits            0                       # DTB write hits
system.cpu.itb.stage2_mmu.stage2_tlb.writeMisses            0                       # DTB write misses
system.cpu.itb.stage2_mmu.stage2_tlb.inserts            0                       # Number of times an entry is inserted into the TLB
system.cpu.itb.stage2_mmu.stage2_tlb.flushTlb            0                       # Number of times complete TLB was flushed
system.cpu.itb.stage2_mmu.stage2_tlb.flushTlbMva            0                       # Number of times TLB was flushed by MVA
system.cpu.itb.stage2_mmu.stage2_tlb.flushTlbMvaAsid            0                       # Number of times TLB was flushed by MVA & ASID
system.cpu.itb.stage2_mmu.stage2_tlb.flushTlbAsid            0                       # Number of times TLB was flushed by ASID
system.cpu.itb.stage2_mmu.stage2_tlb.flushedEntries            0                       # Number of entries that have been flushed from TLB
system.cpu.itb.stage2_mmu.stage2_tlb.alignFaults            0                       # Number of TLB faults due to alignment restrictions
system.cpu.itb.stage2_mmu.stage2_tlb.prefetchFaults            0                       # Number of TLB faults due to prefetch
system.cpu.itb.stage2_mmu.stage2_tlb.domainFaults            0                       # Number of TLB faults due to domain restrictions
system.cpu.itb.stage2_mmu.stage2_tlb.permsFaults            0                       # Number of TLB faults due to permissions restrictions
system.cpu.itb.stage2_mmu.stage2_tlb.readAccesses            0                       # DTB read accesses
system.cpu.itb.stage2_mmu.stage2_tlb.writeAccesses            0                       # DTB write accesses
system.cpu.itb.stage2_mmu.stage2_tlb.instAccesses            0                       # ITB inst accesses
system.cpu.itb.stage2_mmu.stage2_tlb.hits            0                       # Total TLB (inst and data) hits
system.cpu.itb.stage2_mmu.stage2_tlb.misses            0                       # Total TLB (inst and data) misses
system.cpu.itb.stage2_mmu.stage2_tlb.accesses            0                       # Total TLB (inst and data) accesses
system.cpu.itb.stage2_mmu.stage2_tlb.walker.walks            0                       # Table walker walks requested
system.cpu.itb.stage2_mmu.stage2_tlb.walker.requestOrigin_Requested::Data            0                       # Table walker requests started/completed, data/inst
system.cpu.itb.stage2_mmu.stage2_tlb.walker.requestOrigin_Requested::Inst            0                       # Table walker requests started/completed, data/inst
system.cpu.itb.stage2_mmu.stage2_tlb.walker.requestOrigin_Requested::total            0                       # Table walker requests started/completed, data/inst
system.cpu.itb.stage2_mmu.stage2_tlb.walker.requestOrigin_Completed::Data            0                       # Table walker requests started/completed, data/inst
system.cpu.itb.stage2_mmu.stage2_tlb.walker.requestOrigin_Completed::Inst            0                       # Table walker requests started/completed, data/inst
system.cpu.itb.stage2_mmu.stage2_tlb.walker.requestOrigin_Completed::total            0                       # Table walker requests started/completed, data/inst
system.cpu.itb.stage2_mmu.stage2_tlb.walker.requestOrigin::total            0                       # Table walker requests started/completed, data/inst
system.cpu.itb.stage2_mmu.stage2_tlb.walker.power_state.pwrStateResidencyTicks::UNDEFINED 170580071000                       # Cumulative time (in ticks) in various power states
system.cpu.itb.walker.walks                         0                       # Table walker walks requested
system.cpu.itb.walker.requestOrigin_Requested::Data            0                       # Table walker requests started/completed, data/inst
system.cpu.itb.walker.requestOrigin_Requested::Inst            0                       # Table walker requests started/completed, data/inst
system.cpu.itb.walker.requestOrigin_Requested::total            0                       # Table walker requests started/completed, data/inst
system.cpu.itb.walker.requestOrigin_Completed::Data            0                       # Table walker requests started/completed, data/inst
system.cpu.itb.walker.requestOrigin_Completed::Inst            0                       # Table walker requests started/completed, data/inst
system.cpu.itb.walker.requestOrigin_Completed::total            0                       # Table walker requests started/completed, data/inst
system.cpu.itb.walker.requestOrigin::total            0                       # Table walker requests started/completed, data/inst
system.cpu.itb.walker.power_state.pwrStateResidencyTicks::UNDEFINED 170580071000                       # Cumulative time (in ticks) in various power states
system.cpu.power_state.pwrStateResidencyTicks::ON 170580071000                       # Cumulative time (in ticks) in various power states
system.cpu.thread_0.numInsts                100000001                       # Number of Instructions committed
system.cpu.thread_0.numOps                  100196375                       # Number of Ops committed
system.cpu.thread_0.numMemRefs                      0                       # Number of Memory References
system.cpu_clk_domain.clock                      1000                       # Clock period in ticks
system.cpu_voltage_domain.voltage                   1                       # Voltage in Volts
system.l2.demand_hits::.cpu.inst                   92                       # number of demand (read+write) hits
system.l2.demand_hits::.cpu.data               702080                       # number of demand (read+write) hits
system.l2.demand_hits::total                   702172                       # number of demand (read+write) hits
system.l2.overall_hits::.cpu.inst                  92                       # number of overall hits
system.l2.overall_hits::.cpu.data              702080                       # number of overall hits
system.l2.overall_hits::total                  702172                       # number of overall hits
system.l2.demand_misses::.cpu.inst                667                       # number of demand (read+write) misses
system.l2.demand_misses::.cpu.data             279971                       # number of demand (read+write) misses
system.l2.demand_misses::total                 280638                       # number of demand (read+write) misses
system.l2.overall_misses::.cpu.inst               667                       # number of overall misses
system.l2.overall_misses::.cpu.data            279971                       # number of overall misses
system.l2.overall_misses::total                280638                       # number of overall misses
system.l2.demand_miss_latency::.cpu.inst     65627000                       # number of demand (read+write) miss cycles
system.l2.demand_miss_latency::.cpu.data  29819681000                       # number of demand (read+write) miss cycles
system.l2.demand_miss_latency::total      29885308000                       # number of demand (read+write) miss cycles
system.l2.overall_miss_latency::.cpu.inst     65627000                       # number of overall miss cycles
system.l2.overall_miss_latency::.cpu.data  29819681000                       # number of overall miss cycles
system.l2.overall_miss_latency::total     29885308000                       # number of overall miss cycles
system.l2.demand_accesses::.cpu.inst              759                       # number of demand (read+write) accesses
system.l2.demand_accesses::.cpu.data           982051                       # number of demand (read+write) accesses
system.l2.demand_accesses::total               982810                       # number of demand (read+write) accesses
system.l2.overall_accesses::.cpu.inst             759                       # number of overall (read+write) accesses
system.l2.overall_accesses::.cpu.data          982051                       # number of overall (read+write) accesses
system.l2.overall_accesses::total              982810                       # number of overall (read+write) accesses
system.l2.demand_miss_rate::.cpu.inst        0.878788                       # miss rate for demand accesses
system.l2.demand_miss_rate::.cpu.data        0.285088                       # miss rate for demand accesses
system.l2.demand_miss_rate::total            0.285547                       # miss rate for demand accesses
system.l2.overall_miss_rate::.cpu.inst       0.878788                       # miss rate for overall accesses
system.l2.overall_miss_rate::.cpu.data       0.285088                       # miss rate for overall accesses
system.l2.overall_miss_rate::total           0.285547                       # miss rate for overall accesses
system.l2.demand_avg_miss_latency::.cpu.inst 98391.304348                       # average overall miss latency
system.l2.demand_avg_miss_latency::.cpu.data 106509.892096                       # average overall miss latency
system.l2.demand_avg_miss_latency::total 106490.596427                       # average overall miss latency
system.l2.overall_avg_miss_latency::.cpu.inst 98391.304348                       # average overall miss latency
system.l2.overall_avg_miss_latency::.cpu.data 106509.892096                       # average overall miss latency
system.l2.overall_avg_miss_latency::total 106490.596427                       # average overall miss latency
system.l2.blocked_cycles::no_mshrs                  0                       # number of cycles access was blocked
system.l2.blocked_cycles::no_targets                0                       # number of cycles access was blocked
system.l2.blocked::no_mshrs                         0                       # number of cycles access was blocked
system.l2.blocked::no_targets                       0                       # number of cycles access was blocked
system.l2.avg_blocked_cycles::no_mshrs            nan                       # average number of cycles each access was blocked
system.l2.avg_blocked_cycles::no_targets          nan                       # average number of cycles each access was blocked
system.l2.writebacks::.writebacks              193633                       # number of writebacks
system.l2.writebacks::total                    193633                       # number of writebacks
system.l2.demand_mshr_hits::.cpu.data               4                       # number of demand (read+write) MSHR hits
system.l2.demand_mshr_hits::total                   4                       # number of demand (read+write) MSHR hits
system.l2.overall_mshr_hits::.cpu.data              4                       # number of overall MSHR hits
system.l2.overall_mshr_hits::total                  4                       # number of overall MSHR hits
system.l2.demand_mshr_misses::.cpu.inst           667                       # number of demand (read+write) MSHR misses
system.l2.demand_mshr_misses::.cpu.data        279967                       # number of demand (read+write) MSHR misses
system.l2.demand_mshr_misses::total            280634                       # number of demand (read+write) MSHR misses
system.l2.overall_mshr_misses::.cpu.inst          667                       # number of overall MSHR misses
system.l2.overall_mshr_misses::.cpu.data       279967                       # number of overall MSHR misses
system.l2.overall_mshr_misses::total           280634                       # number of overall MSHR misses
system.l2.demand_mshr_miss_latency::.cpu.inst     52287000                       # number of demand (read+write) MSHR miss cycles
system.l2.demand_mshr_miss_latency::.cpu.data  24220051000                       # number of demand (read+write) MSHR miss cycles
system.l2.demand_mshr_miss_latency::total  24272338000                       # number of demand (read+write) MSHR miss cycles
system.l2.overall_mshr_miss_latency::.cpu.inst     52287000                       # number of overall MSHR miss cycles
system.l2.overall_mshr_miss_latency::.cpu.data  24220051000                       # number of overall MSHR miss cycles
system.l2.overall_mshr_miss_latency::total  24272338000                       # number of overall MSHR miss cycles
system.l2.demand_mshr_miss_rate::.cpu.inst     0.878788                       # mshr miss rate for demand accesses
system.l2.demand_mshr_miss_rate::.cpu.data     0.285084                       # mshr miss rate for demand accesses
system.l2.demand_mshr_miss_rate::total       0.285542                       # mshr miss rate for demand accesses
system.l2.overall_mshr_miss_rate::.cpu.inst     0.878788                       # mshr miss rate for overall accesses
system.l2.overall_mshr_miss_rate::.cpu.data     0.285084                       # mshr miss rate for overall accesses
system.l2.overall_mshr_miss_rate::total      0.285542                       # mshr miss rate for overall accesses
system.l2.demand_avg_mshr_miss_latency::.cpu.inst 78391.304348                       # average overall mshr miss latency
system.l2.demand_avg_mshr_miss_latency::.cpu.data 86510.378009                       # average overall mshr miss latency
system.l2.demand_avg_mshr_miss_latency::total 86491.080910                       # average overall mshr miss latency
system.l2.overall_avg_mshr_miss_latency::.cpu.inst 78391.304348                       # average overall mshr miss latency
system.l2.overall_avg_mshr_miss_latency::.cpu.data 86510.378009                       # average overall mshr miss latency
system.l2.overall_avg_mshr_miss_latency::total 86491.080910                       # average overall mshr miss latency
system.l2.replacements                         272522                       # number of replacements
system.l2.WritebackDirty_hits::.writebacks       873230                       # number of WritebackDirty hits
system.l2.WritebackDirty_hits::total           873230                       # number of WritebackDirty hits
system.l2.WritebackDirty_accesses::.writebacks       873230                       # number of WritebackDirty accesses(hits+misses)
system.l2.WritebackDirty_accesses::total       873230                       # number of WritebackDirty accesses(hits+misses)
system.l2.WritebackClean_hits::.writebacks          235                       # number of WritebackClean hits
system.l2.WritebackClean_hits::total              235                       # number of WritebackClean hits
system.l2.WritebackClean_accesses::.writebacks          235                       # number of WritebackClean accesses(hits+misses)
system.l2.WritebackClean_accesses::total          235                       # number of WritebackClean accesses(hits+misses)
system.l2.ReadExReq_hits::.cpu.data            211981                       # number of ReadExReq hits
system.l2.ReadExReq_hits::total                211981                       # number of ReadExReq hits
system.l2.ReadExReq_misses::.cpu.data          171037                       # number of ReadExReq misses
system.l2.ReadExReq_misses::total              171037                       # number of ReadExReq misses
system.l2.ReadExReq_miss_latency::.cpu.data  18611588000                       # number of ReadExReq miss cycles
system.l2.ReadExReq_miss_latency::total   18611588000                       # number of ReadExReq miss cycles
system.l2.ReadExReq_accesses::.cpu.data        383018                       # number of ReadExReq accesses(hits+misses)
system.l2.ReadExReq_accesses::total            383018                       # number of ReadExReq accesses(hits+misses)
system.l2.ReadExReq_miss_rate::.cpu.data     0.446551                       # miss rate for ReadExReq accesses
system.l2.ReadExReq_miss_rate::total         0.446551                       # miss rate for ReadExReq accesses
system.l2.ReadExReq_avg_miss_latency::.cpu.data 108816.150891                       # average ReadExReq miss latency
system.l2.ReadExReq_avg_miss_latency::total 108816.150891                       # average ReadExReq miss latency
system.l2.ReadExReq_mshr_misses::.cpu.data       171037                       # number of ReadExReq MSHR misses
system.l2.ReadExReq_mshr_misses::total         171037                       # number of ReadExReq MSHR misses
system.l2.ReadExReq_mshr_miss_latency::.cpu.data  15190848000                       # number of ReadExReq MSHR miss cycles
system.l2.ReadExReq_mshr_miss_latency::total  15190848000                       # number of ReadExReq MSHR miss cycles
system.l2.ReadExReq_mshr_miss_rate::.cpu.data     0.446551                       # mshr miss rate for ReadExReq accesses
system.l2.ReadExReq_mshr_miss_rate::total     0.446551                       # mshr miss rate for ReadExReq accesses
system.l2.ReadExReq_avg_mshr_miss_latency::.cpu.data 88816.150891                       # average ReadExReq mshr miss latency
system.l2.ReadExReq_avg_mshr_miss_latency::total 88816.150891                       # average ReadExReq mshr miss latency
system.l2.ReadCleanReq_hits::.cpu.inst             92                       # number of ReadCleanReq hits
system.l2.ReadCleanReq_hits::total                 92                       # number of ReadCleanReq hits
system.l2.ReadCleanReq_misses::.cpu.inst          667                       # number of ReadCleanReq misses
system.l2.ReadCleanReq_misses::total              667                       # number of ReadCleanReq misses
system.l2.ReadCleanReq_miss_latency::.cpu.inst     65627000                       # number of ReadCleanReq miss cycles
system.l2.ReadCleanReq_miss_latency::total     65627000                       # number of ReadCleanReq miss cycles
system.l2.ReadCleanReq_accesses::.cpu.inst          759                       # number of ReadCleanReq accesses(hits+misses)
system.l2.ReadCleanReq_accesses::total            759                       # number of ReadCleanReq accesses(hits+misses)
system.l2.ReadCleanReq_miss_rate::.cpu.inst     0.878788                       # miss rate for ReadCleanReq accesses
system.l2.ReadCleanReq_miss_rate::total      0.878788                       # miss rate for ReadCleanReq accesses
system.l2.ReadCleanReq_avg_miss_latency::.cpu.inst 98391.304348                       # average ReadCleanReq miss latency
system.l2.ReadCleanReq_avg_miss_latency::total 98391.304348                       # average ReadCleanReq miss latency
system.l2.ReadCleanReq_mshr_misses::.cpu.inst          667                       # number of ReadCleanReq MSHR misses
system.l2.ReadCleanReq_mshr_misses::total          667                       # number of ReadCleanReq MSHR misses
system.l2.ReadCleanReq_mshr_miss_latency::.cpu.inst     52287000                       # number of ReadCleanReq MSHR miss cycles
system.l2.ReadCleanReq_mshr_miss_latency::total     52287000                       # number of ReadCleanReq MSHR miss cycles
system.l2.ReadCleanReq_mshr_miss_rate::.cpu.inst     0.878788                       # mshr miss rate for ReadCleanReq accesses
system.l2.ReadCleanReq_mshr_miss_rate::total     0.878788                       # mshr miss rate for ReadCleanReq accesses
system.l2.ReadCleanReq_avg_mshr_miss_latency::.cpu.inst 78391.304348                       # average ReadCleanReq mshr miss latency
system.l2.ReadCleanReq_avg_mshr_miss_latency::total 78391.304348                       # average ReadCleanReq mshr miss latency
system.l2.ReadSharedReq_hits::.cpu.data        490099                       # number of ReadSharedReq hits
system.l2.ReadSharedReq_hits::total            490099                       # number of ReadSharedReq hits
system.l2.ReadSharedReq_misses::.cpu.data       108934                       # number of ReadSharedReq misses
system.l2.ReadSharedReq_misses::total          108934                       # number of ReadSharedReq misses
system.l2.ReadSharedReq_miss_latency::.cpu.data  11208093000                       # number of ReadSharedReq miss cycles
system.l2.ReadSharedReq_miss_latency::total  11208093000                       # number of ReadSharedReq miss cycles
system.l2.ReadSharedReq_accesses::.cpu.data       599033                       # number of ReadSharedReq accesses(hits+misses)
system.l2.ReadSharedReq_accesses::total        599033                       # number of ReadSharedReq accesses(hits+misses)
system.l2.ReadSharedReq_miss_rate::.cpu.data     0.181850                       # miss rate for ReadSharedReq accesses
system.l2.ReadSharedReq_miss_rate::total     0.181850                       # miss rate for ReadSharedReq accesses
system.l2.ReadSharedReq_avg_miss_latency::.cpu.data 102888.840950                       # average ReadSharedReq miss latency
system.l2.ReadSharedReq_avg_miss_latency::total 102888.840950                       # average ReadSharedReq miss latency
system.l2.ReadSharedReq_mshr_hits::.cpu.data            4                       # number of ReadSharedReq MSHR hits
system.l2.ReadSharedReq_mshr_hits::total            4                       # number of ReadSharedReq MSHR hits
system.l2.ReadSharedReq_mshr_misses::.cpu.data       108930                       # number of ReadSharedReq MSHR misses
system.l2.ReadSharedReq_mshr_misses::total       108930                       # number of ReadSharedReq MSHR misses
system.l2.ReadSharedReq_mshr_miss_latency::.cpu.data   9029203000                       # number of ReadSharedReq MSHR miss cycles
system.l2.ReadSharedReq_mshr_miss_latency::total   9029203000                       # number of ReadSharedReq MSHR miss cycles
system.l2.ReadSharedReq_mshr_miss_rate::.cpu.data     0.181843                       # mshr miss rate for ReadSharedReq accesses
system.l2.ReadSharedReq_mshr_miss_rate::total     0.181843                       # mshr miss rate for ReadSharedReq accesses
system.l2.ReadSharedReq_avg_mshr_miss_latency::.cpu.data 82889.956853                       # average ReadSharedReq mshr miss latency
system.l2.ReadSharedReq_avg_mshr_miss_latency::total 82889.956853                       # average ReadSharedReq mshr miss latency
system.l2.power_state.pwrStateResidencyTicks::UNDEFINED 170580071000                       # Cumulative time (in ticks) in various power states
system.l2.tags.tagsinuse                  8086.477492                       # Cycle average of tags in use
system.l2.tags.total_refs                     1963202                       # Total number of references to valid blocks.
system.l2.tags.sampled_refs                    280714                       # Sample count of references to valid blocks.
system.l2.tags.avg_refs                      6.993602                       # Average number of references to valid blocks.
system.l2.tags.warmup_cycle                     87000                       # Cycle when the warmup percentage was hit.
system.l2.tags.occ_blocks::.writebacks       5.546370                       # Average occupied blocks per requestor
system.l2.tags.occ_blocks::.cpu.inst        25.672967                       # Average occupied blocks per requestor
system.l2.tags.occ_blocks::.cpu.data      8055.258155                       # Average occupied blocks per requestor
system.l2.tags.occ_percent::.writebacks      0.000677                       # Average percentage of cache occupancy
system.l2.tags.occ_percent::.cpu.inst        0.003134                       # Average percentage of cache occupancy
system.l2.tags.occ_percent::.cpu.data        0.983308                       # Average percentage of cache occupancy
system.l2.tags.occ_percent::total            0.987119                       # Average percentage of cache occupancy
system.l2.tags.occ_task_id_blocks::1024          8192                       # Occupied blocks per task id
system.l2.tags.age_task_id_blocks_1024::0           25                       # Occupied blocks per task id
system.l2.tags.age_task_id_blocks_1024::1          230                       # Occupied blocks per task id
system.l2.tags.age_task_id_blocks_1024::2         2428                       # Occupied blocks per task id
system.l2.tags.age_task_id_blocks_1024::3         5256                       # Occupied blocks per task id
system.l2.tags.age_task_id_blocks_1024::4          253                       # Occupied blocks per task id
system.l2.tags.occ_task_id_percent::1024            1                       # Percentage of cache occupancy per task id
system.l2.tags.tag_accesses                   8133538                       # Number of tag accesses
system.l2.tags.data_accesses                  8133538                       # Number of data accesses
system.l2.tags.power_state.pwrStateResidencyTicks::UNDEFINED 170580071000                       # Cumulative time (in ticks) in various power states
system.mem_ctrls.avgPriority_.writebacks::samples    193633.00                       # Average QoS priority value for accepted requests
system.mem_ctrls.avgPriority_.cpu.inst::samples       667.00                       # Average QoS priority value for accepted requests
system.mem_ctrls.avgPriority_.cpu.data::samples    279382.00                       # Average QoS priority value for accepted requests
system.mem_ctrls.priorityMinLatency      0.000000018750                       # per QoS priority minimum request to response latency (s)
system.mem_ctrls.priorityMaxLatency      0.025804870500                       # per QoS priority maximum request to response latency (s)
system.mem_ctrls.numReadWriteTurnArounds        11361                       # Number of turnarounds from READ to WRITE
system.mem_ctrls.numWriteReadTurnArounds        11361                       # Number of turnarounds from WRITE to READ
system.mem_ctrls.numStayReadState              784992                       # Number of times bus staying in READ state
system.mem_ctrls.numStayWriteState             182591                       # Number of times bus staying in WRITE state
system.mem_ctrls.readReqs                      280634                       # Number of read requests accepted
system.mem_ctrls.writeReqs                     193633                       # Number of write requests accepted
system.mem_ctrls.readBursts                    280634                       # Number of controller read bursts, including those serviced by the write queue
system.mem_ctrls.writeBursts                   193633                       # Number of controller write bursts, including those merged in the write queue
system.mem_ctrls.servicedByWrQ                    585                       # Number of controller read bursts serviced by the write queue
system.mem_ctrls.mergedWrBursts                     0                       # Number of controller write bursts merged with an existing one
system.mem_ctrls.neitherReadNorWriteReqs            0                       # Number of requests that are neither read nor write
system.mem_ctrls.avgRdQLen                       1.05                       # Average read queue length when enqueuing
system.mem_ctrls.avgWrQLen                      24.56                       # Average write queue length when enqueuing
system.mem_ctrls.numRdRetry                         0                       # Number of times read queue was full causing retry
system.mem_ctrls.numWrRetry                         0                       # Number of times write queue was full causing retry
system.mem_ctrls.readPktSize::0                     0                       # Read request sizes (log2)
system.mem_ctrls.readPktSize::1                     0                       # Read request sizes (log2)
system.mem_ctrls.readPktSize::2                     0                       # Read request sizes (log2)
system.mem_ctrls.readPktSize::3                     0                       # Read request sizes (log2)
system.mem_ctrls.readPktSize::4                     0                       # Read request sizes (log2)
system.mem_ctrls.readPktSize::5                     0                       # Read request sizes (log2)
system.mem_ctrls.readPktSize::6                280634                       # Read request sizes (log2)
system.mem_ctrls.writePktSize::0                    0                       # Write request sizes (log2)
system.mem_ctrls.writePktSize::1                    0                       # Write request sizes (log2)
system.mem_ctrls.writePktSize::2                    0                       # Write request sizes (log2)
system.mem_ctrls.writePktSize::3                    0                       # Write request sizes (log2)
system.mem_ctrls.writePktSize::4                    0                       # Write request sizes (log2)
system.mem_ctrls.writePktSize::5                    0                       # Write request sizes (log2)
system.mem_ctrls.writePktSize::6               193633                       # Write request sizes (log2)
system.mem_ctrls.rdQLenPdf::0                  226440                       # What read queue length does an incoming req see
system.mem_ctrls.rdQLenPdf::1                   53466                       # What read queue length does an incoming req see
system.mem_ctrls.rdQLenPdf::2                      84                       # What read queue length does an incoming req see
system.mem_ctrls.rdQLenPdf::3                      58                       # What read queue length does an incoming req see
system.mem_ctrls.rdQLenPdf::4                       1                       # What read queue length does an incoming req see
system.mem_ctrls.rdQLenPdf::5                       0                       # What read queue length does an incoming req see
system.mem_ctrls.rdQLenPdf::6                       0                       # What read queue length does an incoming req see
system.mem_ctrls.rdQLenPdf::7                       0                       # What read queue length does an incoming req see
system.mem_ctrls.rdQLenPdf::8                       0                       # What read queue length does an incoming req see
system.mem_ctrls.rdQLenPdf::9                       0                       # What read queue length does an incoming req see
system.mem_ctrls.rdQLenPdf::10                      0                       # What read queue length does an incoming req see
system.mem_ctrls.rdQLenPdf::11                      0                       # What read queue length does an incoming req see
[...]
system.mem_ctrls.dram.bw_write::.writebacks     72649237                       # Write bandwidth from this memory (bytes/s)
system.mem_ctrls.dram.bw_write::total        72649237                       # Write bandwidth from this memory (bytes/s)
system.mem_ctrls.dram.bw_total::.writebacks     72649237                       # Total bandwidth to/from this memory (bytes/s)
system.mem_ctrls.dram.bw_total::.cpu.inst       250252                       # Total bandwidth to/from this memory (bytes/s)
system.mem_ctrls.dram.bw_total::.cpu.data    105040922                       # Total bandwidth to/from this memory (bytes/s)
system.mem_ctrls.dram.bw_total::total       177940411                       # Total bandwidth to/from this memory (bytes/s)
system.mem_ctrls.dram.readBursts               280049                       # Number of DRAM read bursts
system.mem_ctrls.dram.writeBursts              193616                       # Number of DRAM write bursts
system.mem_ctrls.dram.perBankRdBursts::0        17214                       # Per bank write bursts
system.mem_ctrls.dram.perBankRdBursts::1        17101                       # Per bank write bursts
system.mem_ctrls.dram.perBankRdBursts::2        17546                       # Per bank write bursts
system.mem_ctrls.dram.perBankRdBursts::3        16995                       # Per bank write bursts
system.mem_ctrls.dram.perBankRdBursts::4        17755                       # Per bank write bursts
system.mem_ctrls.dram.perBankRdBursts::5        16489                       # Per bank write bursts
system.mem_ctrls.dram.perBankRdBursts::6        18875                       # Per bank write bursts
system.mem_ctrls.dram.perBankRdBursts::7        18853                       # Per bank write bursts
system.mem_ctrls.dram.perBankRdBursts::8        17081                       # Per bank write bursts
system.mem_ctrls.dram.perBankRdBursts::9        16525                       # Per bank write bursts
system.mem_ctrls.dram.perBankRdBursts::10        18447                       # Per bank write bursts
system.mem_ctrls.dram.perBankRdBursts::11        16621                       # Per bank write bursts
system.mem_ctrls.dram.perBankRdBursts::12        17306                       # Per bank write bursts
system.mem_ctrls.dram.perBankRdBursts::13        19162                       # Per bank write bursts
system.mem_ctrls.dram.perBankRdBursts::14        17309                       # Per bank write bursts
system.mem_ctrls.dram.perBankRdBursts::15        16770                       # Per bank write bursts
system.mem_ctrls.dram.perBankWrBursts::0        11616                       # Per bank write bursts
system.mem_ctrls.dram.perBankWrBursts::1        11543                       # Per bank write bursts
system.mem_ctrls.dram.perBankWrBursts::2        12165                       # Per bank write bursts
system.mem_ctrls.dram.perBankWrBursts::3        11592                       # Per bank write bursts
system.mem_ctrls.dram.perBankWrBursts::4        12370                       # Per bank write bursts
system.mem_ctrls.dram.perBankWrBursts::5        11277                       # Per bank write bursts
system.mem_ctrls.dram.perBankWrBursts::6        13644                       # Per bank write bursts
system.mem_ctrls.dram.perBankWrBursts::7        13501                       # Per bank write bursts
system.mem_ctrls.dram.perBankWrBursts::8        11940                       # Per bank write bursts
system.mem_ctrls.dram.perBankWrBursts::9        11426                       # Per bank write bursts
system.mem_ctrls.dram.perBankWrBursts::10        13085                       # Per bank write bursts
system.mem_ctrls.dram.perBankWrBursts::11        11054                       # Per bank write bursts
system.mem_ctrls.dram.perBankWrBursts::12        11692                       # Per bank write bursts
system.mem_ctrls.dram.perBankWrBursts::13        13609                       # Per bank write bursts
system.mem_ctrls.dram.perBankWrBursts::14        11814                       # Per bank write bursts
system.mem_ctrls.dram.perBankWrBursts::15        11288                       # Per bank write bursts
system.mem_ctrls.dram.totQLat              4585485000                       # Total ticks spent queuing
system.mem_ctrls.dram.totBusLat            1400245000                       # Total ticks spent in databus transfers
system.mem_ctrls.dram.totMemAccLat         9836403750                       # Total ticks spent from burst creation until serviced by the DRAM
system.mem_ctrls.dram.avgQLat                16373.87                       # Average queueing delay per DRAM burst
system.mem_ctrls.dram.avgBusLat               5000.00                       # Average bus latency per DRAM burst
system.mem_ctrls.dram.avgMemAccLat           35123.87                       # Average memory access latency per DRAM burst
system.mem_ctrls.dram.readRowHits              145877                       # Number of row buffer hits during reads
system.mem_ctrls.dram.writeRowHits              98706                       # Number of row buffer hits during writes
system.mem_ctrls.dram.readRowHitRate            52.09                       # Row buffer hit rate for reads
system.mem_ctrls.dram.writeRowHitRate           50.98                       # Row buffer hit rate for writes
system.mem_ctrls.dram.bytesPerActivate::samples       229077                       # Bytes accessed per row activation
system.mem_ctrls.dram.bytesPerActivate::mean   132.331819                       # Bytes accessed per row activation
system.mem_ctrls.dram.bytesPerActivate::gmean    89.085593                       # Bytes accessed per row activation
system.mem_ctrls.dram.bytesPerActivate::stdev   189.767109                       # Bytes accessed per row activation
system.mem_ctrls.dram.bytesPerActivate::0-127       175115     76.44%     76.44% # Bytes accessed per row activation
system.mem_ctrls.dram.bytesPerActivate::128-255        28560     12.47%     88.91% # Bytes accessed per row activation
system.mem_ctrls.dram.bytesPerActivate::256-383         6430      2.81%     91.72% # Bytes accessed per row activation
system.mem_ctrls.dram.bytesPerActivate::384-511         1512      0.66%     92.38% # Bytes accessed per row activation
system.mem_ctrls.dram.bytesPerActivate::512-639         9235      4.03%     96.41% # Bytes accessed per row activation
system.mem_ctrls.dram.bytesPerActivate::640-767          855      0.37%     96.78% # Bytes accessed per row activation
system.mem_ctrls.dram.bytesPerActivate::768-895          718      0.31%     97.10% # Bytes accessed per row activation
system.mem_ctrls.dram.bytesPerActivate::896-1023          465      0.20%     97.30% # Bytes accessed per row activation
system.mem_ctrls.dram.bytesPerActivate::1024-1151         6187      2.70%    100.00% # Bytes accessed per row activation
system.mem_ctrls.dram.bytesPerActivate::total       229077                       # Bytes accessed per row activation
system.mem_ctrls.dram.bytesRead              17923136                       # Total number of bytes read from DRAM
system.mem_ctrls.dram.bytesWritten           12391424                       # Total number of bytes written to DRAM
system.mem_ctrls.dram.avgRdBW              105.071688                       # Average DRAM read bandwidth in MiBytes/s
system.mem_ctrls.dram.avgWrBW               72.642859                       # Average DRAM write bandwidth in MiBytes/s
system.mem_ctrls.dram.peakBW                 12800.00                       # Theoretical peak bandwidth in MiByte/s
system.mem_ctrls.dram.busUtil                    1.39                       # Data bus utilization in percentage
system.mem_ctrls.dram.busUtilRead                0.82                       # Data bus utilization in percentage for reads
system.mem_ctrls.dram.busUtilWrite               0.57                       # Data bus utilization in percentage for writes
system.mem_ctrls.dram.pageHitRate               51.64                       # Row buffer hit rate, read and write combined
system.mem_ctrls.dram.power_state.pwrStateResidencyTicks::UNDEFINED 170580071000                       # Cumulative time (in ticks) in various power states
system.mem_ctrls.dram.rank0.actEnergy       827440320                       # Energy for activate commands per rank (pJ)
system.mem_ctrls.dram.rank0.preEnergy       439783575                       # Energy for precharge commands per rank (pJ)
system.mem_ctrls.dram.rank0.readEnergy     1005511920                       # Energy for read commands per rank (pJ)
system.mem_ctrls.dram.rank0.writeEnergy     510035760                       # Energy for write commands per rank (pJ)
system.mem_ctrls.dram.rank0.refreshEnergy 13464918480.000002                       # Energy for refresh commands per rank (pJ)
system.mem_ctrls.dram.rank0.actBackEnergy  41832630030                       # Energy for active background per rank (pJ)
system.mem_ctrls.dram.rank0.preBackEnergy  30275269440                       # Energy for precharge background per rank (pJ)
system.mem_ctrls.dram.rank0.actPowerDownEnergy            0                       # Energy for active power-down per rank (pJ)
system.mem_ctrls.dram.rank0.prePowerDownEnergy            0                       # Energy for precharge power-down per rank (pJ)
system.mem_ctrls.dram.rank0.selfRefreshEnergy            0                       # Energy for self refresh per rank (pJ)
system.mem_ctrls.dram.rank0.totalEnergy   88355589525                       # Total energy per rank (pJ)
system.mem_ctrls.dram.rank0.averagePower   517.971349                       # Core power per rank (mW)
system.mem_ctrls.dram.rank0.totalIdleTime            0                       # Total Idle time Per DRAM Rank
system.mem_ctrls.dram.rank0.pwrStateTime::IDLE  78277015750                       # Time in different power states
system.mem_ctrls.dram.rank0.pwrStateTime::REF   5695820000                       # Time in different power states
system.mem_ctrls.dram.rank0.pwrStateTime::SREF            0                       # Time in different power states
system.mem_ctrls.dram.rank0.pwrStateTime::PRE_PDN            0                       # Time in different power states
system.mem_ctrls.dram.rank0.pwrStateTime::ACT  86607235250                       # Time in different power states
system.mem_ctrls.dram.rank0.pwrStateTime::ACT_PDN            0                       # Time in different power states
system.mem_ctrls.dram.rank1.actEnergy       808205160                       # Energy for activate commands per rank (pJ)
system.mem_ctrls.dram.rank1.preEnergy       429563640                       # Energy for precharge commands per rank (pJ)
system.mem_ctrls.dram.rank1.readEnergy      994037940                       # Energy for read commands per rank (pJ)
system.mem_ctrls.dram.rank1.writeEnergy     500639760                       # Energy for write commands per rank (pJ)
system.mem_ctrls.dram.rank1.refreshEnergy 13464918480.000002                       # Energy for refresh commands per rank (pJ)
system.mem_ctrls.dram.rank1.actBackEnergy  41716995840                       # Energy for active background per rank (pJ)
system.mem_ctrls.dram.rank1.preBackEnergy  30372645600                       # Energy for precharge background per rank (pJ)
system.mem_ctrls.dram.rank1.actPowerDownEnergy            0                       # Energy for active power-down per rank (pJ)
system.mem_ctrls.dram.rank1.prePowerDownEnergy            0                       # Energy for precharge power-down per rank (pJ)
system.mem_ctrls.dram.rank1.selfRefreshEnergy            0                       # Energy for self refresh per rank (pJ)
system.mem_ctrls.dram.rank1.totalEnergy   88287006420                       # Total energy per rank (pJ)
system.mem_ctrls.dram.rank1.averagePower   517.569291                       # Core power per rank (mW)
system.mem_ctrls.dram.rank1.totalIdleTime            0                       # Total Idle time Per DRAM Rank
system.mem_ctrls.dram.rank1.pwrStateTime::IDLE  78529496250                       # Time in different power states
system.mem_ctrls.dram.rank1.pwrStateTime::REF   5695820000                       # Time in different power states
system.mem_ctrls.dram.rank1.pwrStateTime::SREF            0                       # Time in different power states
system.mem_ctrls.dram.rank1.pwrStateTime::PRE_PDN            0                       # Time in different power states
system.mem_ctrls.dram.rank1.pwrStateTime::ACT  86354754750                       # Time in different power states
system.mem_ctrls.dram.rank1.pwrStateTime::ACT_PDN            0                       # Time in different power states
system.mem_ctrls.power_state.pwrStateResidencyTicks::UNDEFINED 170580071000                       # Cumulative time (in ticks) in various power states
system.membus.trans_dist::ReadResp             109597                       # Transaction distribution
system.membus.trans_dist::WritebackDirty       193633                       # Transaction distribution
system.membus.trans_dist::CleanEvict            78288                       # Transaction distribution
system.membus.trans_dist::ReadExReq            171037                       # Transaction distribution
system.membus.trans_dist::ReadExResp           171037                       # Transaction distribution
system.membus.trans_dist::ReadSharedReq        109597                       # Transaction distribution
system.membus.pkt_count_system.l2.mem_side_port::system.mem_ctrls.port       833189                       # Packet count per connected requestor and responder (bytes)
system.membus.pkt_count::total                 833189                       # Packet count per connected requestor and responder (bytes)
system.membus.pkt_size_system.l2.mem_side_port::system.mem_ctrls.port     30353088                       # Cumulative packet size per connected requestor and responder (bytes)
system.membus.pkt_size::total                30353088                       # Cumulative packet size per connected requestor and responder (bytes)
system.membus.snoops                                0                       # Total snoops (count)
system.membus.snoopTraffic                          0                       # Total snoop traffic (bytes)
system.membus.snoop_fanout::samples            280634                       # Request fanout histogram
system.membus.snoop_fanout::mean                    0                       # Request fanout histogram
system.membus.snoop_fanout::stdev                   0                       # Request fanout histogram
system.membus.snoop_fanout::underflows              0      0.00%      0.00% # Request fanout histogram
system.membus.snoop_fanout::0                  280634    100.00%    100.00% # Request fanout histogram
system.membus.snoop_fanout::1                       0      0.00%    100.00% # Request fanout histogram
system.membus.snoop_fanout::overflows               0      0.00%    100.00% # Request fanout histogram
system.membus.snoop_fanout::min_value               0                       # Request fanout histogram
system.membus.snoop_fanout::max_value               0                       # Request fanout histogram
system.membus.snoop_fanout::total              280634                       # Request fanout histogram
system.membus.power_state.pwrStateResidencyTicks::UNDEFINED 170580071000                       # Cumulative time (in ticks) in various power states
system.membus.reqLayer0.occupancy          1327087000                       # Layer occupancy (ticks)
system.membus.reqLayer0.utilization               0.8                       # Layer utilization (%)
system.membus.respLayer1.occupancy         1526573250                       # Layer occupancy (ticks)
system.membus.respLayer1.utilization              0.9                       # Layer utilization (%)
system.tol2bus.trans_dist::ReadResp            599792                       # Transaction distribution
system.tol2bus.trans_dist::WritebackDirty      1066863                       # Transaction distribution
system.tol2bus.trans_dist::WritebackClean          246                       # Transaction distribution
system.tol2bus.trans_dist::CleanEvict          187198                       # Transaction distribution
system.tol2bus.trans_dist::ReadExReq           383018                       # Transaction distribution
system.tol2bus.trans_dist::ReadExResp          383018                       # Transaction distribution
system.tol2bus.trans_dist::ReadCleanReq           759                       # Transaction distribution
system.tol2bus.trans_dist::ReadSharedReq       599033                       # Transaction distribution
system.tol2bus.pkt_count_system.cpu.icache.mem_side_port::system.l2.cpu_side_port         1764                       # Packet count per connected requestor and responder (bytes)
system.tol2bus.pkt_count_system.cpu.dcache.mem_side_port::system.l2.cpu_side_port      2945641                       # Packet count per connected requestor and responder (bytes)
system.tol2bus.pkt_count::total               2947405                       # Packet count per connected requestor and responder (bytes)
system.tol2bus.pkt_size_system.cpu.icache.mem_side_port::system.l2.cpu_side_port        64320                       # Cumulative packet size per connected requestor and responder (bytes)
system.tol2bus.pkt_size_system.cpu.dcache.mem_side_port::system.l2.cpu_side_port    118737984                       # Cumulative packet size per connected requestor and responder (bytes)
system.tol2bus.pkt_size::total              118802304                       # Cumulative packet size per connected requestor and responder (bytes)
system.tol2bus.snoops                          272522                       # Total snoops (count)
system.tol2bus.snoopTraffic                  12392512                       # Total snoop traffic (bytes)
system.tol2bus.snoop_fanout::samples          1255332                       # Request fanout histogram
system.tol2bus.snoop_fanout::mean            0.001587                       # Request fanout histogram
system.tol2bus.snoop_fanout::stdev           0.039803                       # Request fanout histogram
system.tol2bus.snoop_fanout::underflows             0      0.00%      0.00% # Request fanout histogram
system.tol2bus.snoop_fanout::0                1253340     99.84%     99.84% # Request fanout histogram
system.tol2bus.snoop_fanout::1                   1992      0.16%    100.00% # Request fanout histogram
system.tol2bus.snoop_fanout::2                      0      0.00%    100.00% # Request fanout histogram
system.tol2bus.snoop_fanout::overflows              0      0.00%    100.00% # Request fanout histogram
system.tol2bus.snoop_fanout::min_value              0                       # Request fanout histogram
system.tol2bus.snoop_fanout::max_value              1                       # Request fanout histogram
system.tol2bus.snoop_fanout::total            1255332                       # Request fanout histogram
system.tol2bus.power_state.pwrStateResidencyTicks::UNDEFINED 170580071000                       # Cumulative time (in ticks) in various power states
system.tol2bus.reqLayer0.occupancy         3711547000                       # Layer occupancy (ticks)
system.tol2bus.reqLayer0.utilization              2.2                       # Layer utilization (%)
system.tol2bus.respLayer0.occupancy           2277000                       # Layer occupancy (ticks)
system.tol2bus.respLayer0.utilization             0.0                       # Layer utilization (%)
system.tol2bus.respLayer1.occupancy        2946156996                       # Layer occupancy (ticks)
system.tol2bus.respLayer1.utilization             1.7                       # Layer utilization (%)
system.voltage_domain.voltage                       1                       # Voltage in Volts

---------- End Simulation Statistics   ----------
