
---------- Begin Simulation Statistics ----------
final_tick                               166934430000                       # Number of ticks from beginning of simulation (restored from checkpoints and never reset)
host_inst_rate                                 402161                       # Simulator instruction rate (inst/s)
host_mem_usage                                 662176                       # Number of bytes of host memory used
host_op_rate                                   402951                       # Simulator op (including micro ops) rate (op/s)
host_seconds                                   248.66                       # Real time elapsed on the host
host_tick_rate                              671345443                       # Simulator tick rate (ticks/s)
sim_freq                                 1000000000000                       # Frequency of simulated ticks
sim_insts                                   100000001                       # Number of instructions simulated
sim_ops                                     100196375                       # Number of ops (including micro ops) simulated
sim_seconds                                  0.166934                       # Number of seconds simulated
sim_ticks                                166934430000                       # Number of ticks simulated
system.cpu.committedInsts                   100000001                       # Number of instructions committed
system.cpu.committedOps                     100196375                       # Number of ops (including micro ops) committed
system.cpu.cpi                               1.669344                       # CPI: cycles per instruction
system.cpu.discardedOps                        191263                       # Number of ops (including micro ops) which were discarded before commit
system.cpu.idleCycles                        34043231                       # Total number of cycles that the object has spent stopped
system.cpu.ipc                               0.599038                       # IPC: instructions per cycle
system.cpu.numCycles                        166934430                       # number of cpu cycles simulated
system.cpu.numFetchSuspends                         0                       # Number of times Execute suspended instruction fetching
system.cpu.numWorkItemsCompleted                    0                       # number of work items this cpu completed
system.cpu.numWorkItemsStarted                      0                       # number of work items this cpu started
system.cpu.op_class_0::No_OpClass                   0      0.00%      0.00% # Class of committed instruction
system.cpu.op_class_0::IntAlu                46526221     46.44%     46.44% # Class of committed instruction
system.cpu.op_class_0::IntMult                  20720      0.02%     46.46% # Class of committed instruction
system.cpu.op_class_0::IntDiv                       0      0.00%     46.46% # Class of committed instruction
system.cpu.op_class_0::FloatAdd                     0      0.00%     46.46% # Class of committed instruction
system.cpu.op_class_0::FloatCmp                     0      0.00%     46.46% # Class of committed instruction
system.cpu.op_class_0::FloatCvt                     0      0.00%     46.46% # Class of committed instruction
system.cpu.op_class_0::FloatMult                    0      0.00%     46.46% # Class of committed instruction
system.cpu.op_class_0::FloatMultAcc                 0      0.00%     46.46% # Class of committed instruction
system.cpu.op_class_0::FloatDiv                     0      0.00%     46.46% # Class of committed instruction
system.cpu.op_class_0::FloatMisc                    0      0.00%     46.46% # Class of committed instruction
system.cpu.op_class_0::FloatSqrt                    0      0.00%     46.46% # Class of committed instruction
system.cpu.op_class_0::SimdAdd                      0      0.00%     46.46% # Class of committed instruction
system.cpu.op_class_0::SimdAddAcc                   0      0.00%     46.46% # Class of committed instruction
system.cpu.op_class_0::SimdAlu                      0      0.00%     46.46% # Class of committed instruction
system.cpu.op_class_0::SimdCmp                      0      0.00%     46.46% # Class of committed instruction
system.cpu.op_class_0::SimdCvt                      0      0.00%     46.46% # Class of committed instruction
system.cpu.op_class_0::SimdMisc                     0      0.00%     46.46% # Class of committed instruction
system.cpu.op_class_0::SimdMult                     0      0.00%     46.46% # Class of committed instruction
system.cpu.op_class_0::SimdMultAcc                  0      0.00%     46.46% # Class of committed instruction
system.cpu.op_class_0::SimdShift                    0      0.00%     46.46% # Class of committed instruction
system.cpu.op_class_0::SimdShiftAcc                 0      0.00%     46.46% # Class of committed instruction
system.cpu.op_class_0::SimdDiv                      0      0.00%     46.46% # Class of committed instruction
system.cpu.op_class_0::SimdSqrt                     0      0.00%     46.46% # Class of committed instruction
system.cpu.op_class_0::SimdFloatAdd                 0      0.00%     46.46% # Class of committed instruction
system.cpu.op_class_0::SimdFloatAlu                 0      0.00%     46.46% # Class of committed instruction
system.cpu.op_class_0::SimdFloatCmp                 0      0.00%     46.46% # Class of committed instruction
system.cpu.op_class_0::SimdFloatCvt                 0      0.00%     46.46% # Class of committed instruction
system.cpu.op_class_0::SimdFloatDiv                 0      0.00%     46.46% # Class of committed instruction
system.cpu.op_class_0::SimdFloatMisc               18      0.00%     46.46% # Class of committed instruction
system.cpu.op_class_0::SimdFloatMult                0      0.00%     46.46% # Class of committed instruction
system.cpu.op_class_0::SimdFloatMultAcc             0      0.00%     46.46% # Class of committed instruction
system.cpu.op_class_0::SimdFloatSqrt                0      0.00%     46.46% # Class of committed instruction
system.cpu.op_class_0::SimdReduceAdd                0      0.00%     46.46% # Class of committed instruction
system.cpu.op_class_0::SimdReduceAlu                0      0.00%     46.46% # Class of committed instruction
system.cpu.op_class_0::SimdReduceCmp                0      0.00%     46.46% # Class of committed instruction
system.cpu.op_class_0::SimdFloatReduceAdd            0      0.00%     46.46% # Class of committed instruction
system.cpu.op_class_0::SimdFloatReduceCmp            0      0.00%     46.46% # Class of committed instruction
system.cpu.op_class_0::SimdAes                      0      0.00%     46.46% # Class of committed instruction
system.cpu.op_class_0::SimdAesMix                   0      0.00%     46.46% # Class of committed instruction
system.cpu.op_class_0::SimdSha1Hash                 0      0.00%     46.46% # Class of committed instruction
system.cpu.op_class_0::SimdSha1Hash2                0      0.00%     46.46% # Class of committed instruction
system.cpu.op_class_0::SimdSha256Hash               0      0.00%     46.46% # Class of committed instruction
system.cpu.op_class_0::SimdSha256Hash2              0      0.00%     46.46% # Class of committed instruction
system.cpu.op_class_0::SimdShaSigma2                0      0.00%     46.46% # Class of committed instruction
system.cpu.op_class_0::SimdShaSigma3                0      0.00%     46.46% # Class of committed instruction
system.cpu.op_class_0::SimdPredAlu                  0      0.00%     46.46% # Class of committed instruction
system.cpu.op_class_0::MemRead               42691041     42.61%     89.06% # Class of committed instruction
system.cpu.op_class_0::MemWrite              10958375     10.94%    100.00% # Class of committed instruction
system.cpu.op_class_0::FloatMemRead                 0      0.00%    100.00% # Class of committed instruction
system.cpu.op_class_0::FloatMemWrite                0      0.00%    100.00% # Class of committed instruction
system.cpu.op_class_0::IprAccess                    0      0.00%    100.00% # Class of committed instruction
system.cpu.op_class_0::InstPrefetch                 0      0.00%    100.00% # Class of committed instruction
system.cpu.op_class_0::total                100196375                       # Class of committed instruction
system.cpu.tickCycles                       132891199                       # Number of cycles that the object actually ticked
system.cpu.workload.numSyscalls                    84                       # Number of system calls
system.membus.snoop_filter.hit_multi_requests            0                       # Number of requests hitting in the snoop filter with multiple (>1) holders of the requested data.
system.membus.snoop_filter.hit_multi_snoops            0                       # Number of snoops hitting in the snoop filter with multiple (>1) holders of the requested data.
system.membus.snoop_filter.hit_single_requests       278798                       # Number of requests hitting in the snoop filter with a single holder of the requested data.
system.membus.snoop_filter.hit_single_snoops            0                       # Number of snoops hitting in the snoop filter with a single holder of the requested data.
system.membus.snoop_filter.tot_requests        566138                       # Total number of requests made to the snoop filter.
system.membus.snoop_filter.tot_snoops               0                       # Total number of snoops made to the snoop filter.
system.tol2bus.snoop_filter.hit_multi_requests          711                       # Number of requests hitting in the snoop filter with multiple (>1) holders of the requested data.
system.tol2bus.snoop_filter.hit_multi_snoops           20                       # Number of snoops hitting in the snoop filter with multiple (>1) holders of the requested data.
system.tol2bus.snoop_filter.hit_single_requests       777977                       # Number of requests hitting in the snoop filter with a single holder of the requested data.
system.tol2bus.snoop_filter.hit_single_snoops        14159                       # Number of snoops hitting in the snoop filter with a single holder of the requested data.
system.tol2bus.snoop_filter.tot_requests      1557361                       # Total number of requests made to the snoop filter.
system.tol2bus.snoop_filter.tot_snoops          14179                       # Total number of snoops made to the snoop filter.
system.clk_domain.clock                          1000                       # Clock period in ticks
system.cpu.branchPred.lookups                 4485393                       # Number of BP lookups
system.cpu.branchPred.condPredicted           3734850                       # Number of conditional branches predicted
system.cpu.branchPred.condIncorrect             80994                       # Number of conditional branches incorrect
system.cpu.branchPred.BTBLookups              2103935                       # Number of BTB lookups
system.cpu.branchPred.BTBHits                 2101918                       # Number of BTB hits
system.cpu.branchPred.BTBHitPct             99.904132                       # BTB Hit Percentage
system.cpu.branchPred.RASUsed                   65394                       # Number of times the RAS was used to get a target.
system.cpu.branchPred.RASIncorrect                 14                       # Number of incorrect RAS predictions.
system.cpu.branchPred.indirectLookups             702                       # Number of indirect predictor lookups.
system.cpu.branchPred.indirectHits                288                       # Number of indirect target hits.
system.cpu.branchPred.indirectMisses              414                       # Number of indirect misses.
system.cpu.branchPred.indirectMispredicted          169                       # Number of mispredicted indirect branches.
system.cpu.dcache.demand_hits::.cpu.data     51244379                       # number of demand (read+write) hits
system.cpu.dcache.demand_hits::total         51244379                       # number of demand (read+write) hits
system.cpu.dcache.overall_hits::.cpu.data     51244847                       # number of overall hits
system.cpu.dcache.overall_hits::total        51244847                       # number of overall hits
system.cpu.dcache.demand_misses::.cpu.data       826020                       # number of demand (read+write) misses
system.cpu.dcache.demand_misses::total         826020                       # number of demand (read+write) misses
system.cpu.dcache.overall_misses::.cpu.data       833971                       # number of overall misses
system.cpu.dcache.overall_misses::total        833971                       # number of overall misses
system.cpu.dcache.demand_miss_latency::.cpu.data  45939979949                       # number of demand (read+write) miss cycles
system.cpu.dcache.demand_miss_latency::total  45939979949                       # number of demand (read+write) miss cycles
system.cpu.dcache.overall_miss_latency::.cpu.data  45939979949                       # number of overall miss cycles
system.cpu.dcache.overall_miss_latency::total  45939979949                       # number of overall miss cycles
system.cpu.dcache.demand_accesses::.cpu.data     52070399                       # number of demand (read+write) accesses
system.cpu.dcache.demand_accesses::total     52070399                       # number of demand (read+write) accesses
system.cpu.dcache.overall_accesses::.cpu.data     52078818                       # number of overall (read+write) accesses
system.cpu.dcache.overall_accesses::total     52078818                       # number of overall (read+write) accesses
system.cpu.dcache.demand_miss_rate::.cpu.data     0.015864                       # miss rate for demand accesses
system.cpu.dcache.demand_miss_rate::total     0.015864                       # miss rate for demand accesses
system.cpu.dcache.overall_miss_rate::.cpu.data     0.016014                       # miss rate for overall accesses
system.cpu.dcache.overall_miss_rate::total     0.016014                       # miss rate for overall accesses
system.cpu.dcache.demand_avg_miss_latency::.cpu.data 55616.062503                       # average overall miss latency
system.cpu.dcache.demand_avg_miss_latency::total 55616.062503                       # average overall miss latency
system.cpu.dcache.overall_avg_miss_latency::.cpu.data 55085.824266                       # average overall miss latency
system.cpu.dcache.overall_avg_miss_latency::total 55085.824266                       # average overall miss latency
system.cpu.dcache.blocked_cycles::no_mshrs        97748                       # number of cycles access was blocked
system.cpu.dcache.blocked_cycles::no_targets            0                       # number of cycles access was blocked
system.cpu.dcache.blocked::no_mshrs              3572                       # number of cycles access was blocked
system.cpu.dcache.blocked::no_targets               0                       # number of cycles access was blocked
system.cpu.dcache.avg_blocked_cycles::no_mshrs    27.365062                       # average number of cycles each access was blocked
system.cpu.dcache.avg_blocked_cycles::no_targets          nan                       # average number of cycles each access was blocked
system.cpu.dcache.writebacks::.writebacks       677833                       # number of writebacks
system.cpu.dcache.writebacks::total            677833                       # number of writebacks
system.cpu.dcache.demand_mshr_hits::.cpu.data        55455                       # number of demand (read+write) MSHR hits
system.cpu.dcache.demand_mshr_hits::total        55455                       # number of demand (read+write) MSHR hits
system.cpu.dcache.overall_mshr_hits::.cpu.data        55455                       # number of overall MSHR hits
system.cpu.dcache.overall_mshr_hits::total        55455                       # number of overall MSHR hits
system.cpu.dcache.demand_mshr_misses::.cpu.data       770565                       # number of demand (read+write) MSHR misses
system.cpu.dcache.demand_mshr_misses::total       770565                       # number of demand (read+write) MSHR misses
system.cpu.dcache.overall_mshr_misses::.cpu.data       778511                       # number of overall MSHR misses
system.cpu.dcache.overall_mshr_misses::total       778511                       # number of overall MSHR misses
system.cpu.dcache.demand_mshr_miss_latency::.cpu.data  42636792998                       # number of demand (read+write) MSHR miss cycles
system.cpu.dcache.demand_mshr_miss_latency::total  42636792998                       # number of demand (read+write) MSHR miss cycles
system.cpu.dcache.overall_mshr_miss_latency::.cpu.data  43449518997                       # number of overall MSHR miss cycles
system.cpu.dcache.overall_mshr_miss_latency::total  43449518997                       # number of overall MSHR miss cycles
system.cpu.dcache.demand_mshr_miss_rate::.cpu.data     0.014799                       # mshr miss rate for demand accesses
system.cpu.dcache.demand_mshr_miss_rate::total     0.014799                       # mshr miss rate for demand accesses
system.cpu.dcache.overall_mshr_miss_rate::.cpu.data     0.014949                       # mshr miss rate for overall accesses
system.cpu.dcache.overall_mshr_miss_rate::total     0.014949                       # mshr miss rate for overall accesses
system.cpu.dcache.demand_avg_mshr_miss_latency::.cpu.data 55331.857790                       # average overall mshr miss latency
system.cpu.dcache.demand_avg_mshr_miss_latency::total 55331.857790                       # average overall mshr miss latency
system.cpu.dcache.overall_avg_mshr_miss_latency::.cpu.data 55811.053405                       # average overall mshr miss latency
system.cpu.dcache.overall_avg_mshr_miss_latency::total 55811.053405                       # average overall mshr miss latency
system.cpu.dcache.replacements                 777486                       # number of replacements
system.cpu.dcache.ReadReq_hits::.cpu.data     40669997                       # number of ReadReq hits
system.cpu.dcache.ReadReq_hits::total        40669997                       # number of ReadReq hits
system.cpu.dcache.ReadReq_misses::.cpu.data       451162                       # number of ReadReq misses
system.cpu.dcache.ReadReq_misses::total        451162                       # number of ReadReq misses
system.cpu.dcache.ReadReq_miss_latency::.cpu.data  20318617999                       # number of ReadReq miss cycles
system.cpu.dcache.ReadReq_miss_latency::total  20318617999                       # number of ReadReq miss cycles
system.cpu.dcache.ReadReq_accesses::.cpu.data     41121159                       # number of ReadReq accesses(hits+misses)
system.cpu.dcache.ReadReq_accesses::total     41121159                       # number of ReadReq accesses(hits+misses)
system.cpu.dcache.ReadReq_miss_rate::.cpu.data     0.010972                       # miss rate for ReadReq accesses
system.cpu.dcache.ReadReq_miss_rate::total     0.010972                       # miss rate for ReadReq accesses
system.cpu.dcache.ReadReq_avg_miss_latency::.cpu.data 45036.190989                       # average ReadReq miss latency
system.cpu.dcache.ReadReq_avg_miss_latency::total 45036.190989                       # average ReadReq miss latency
system.cpu.dcache.ReadReq_mshr_hits::.cpu.data         1916                       # number of ReadReq MSHR hits
system.cpu.dcache.ReadReq_mshr_hits::total         1916                       # number of ReadReq MSHR hits
system.cpu.dcache.ReadReq_mshr_misses::.cpu.data       449246                       # number of ReadReq MSHR misses
system.cpu.dcache.ReadReq_mshr_misses::total       449246                       # number of ReadReq MSHR misses
system.cpu.dcache.ReadReq_mshr_miss_latency::.cpu.data  19317479999                       # number of ReadReq MSHR miss cycles
system.cpu.dcache.ReadReq_mshr_miss_latency::total  19317479999                       # number of ReadReq MSHR miss cycles
system.cpu.dcache.ReadReq_mshr_miss_rate::.cpu.data     0.010925                       # mshr miss rate for ReadReq accesses
system.cpu.dcache.ReadReq_mshr_miss_rate::total     0.010925                       # mshr miss rate for ReadReq accesses
system.cpu.dcache.ReadReq_avg_mshr_miss_latency::.cpu.data 42999.781854                       # average ReadReq mshr miss latency
system.cpu.dcache.ReadReq_avg_mshr_miss_latency::total 42999.781854                       # average ReadReq mshr miss latency
system.cpu.dcache.WriteReq_hits::.cpu.data     10574382                       # number of WriteReq hits
system.cpu.dcache.WriteReq_hits::total       10574382                       # number of WriteReq hits
system.cpu.dcache.WriteReq_misses::.cpu.data       374858                       # number of WriteReq misses
system.cpu.dcache.WriteReq_misses::total       374858                       # number of WriteReq misses
system.cpu.dcache.WriteReq_miss_latency::.cpu.data  25621361950                       # number of WriteReq miss cycles
system.cpu.dcache.WriteReq_miss_latency::total  25621361950                       # number of WriteReq miss cycles
system.cpu.dcache.WriteReq_accesses::.cpu.data     10949240                       # number of WriteReq accesses(hits+misses)
system.cpu.dcache.WriteReq_accesses::total     10949240                       # number of WriteReq accesses(hits+misses)
system.cpu.dcache.WriteReq_miss_rate::.cpu.data     0.034236                       # miss rate for WriteReq accesses
system.cpu.dcache.WriteReq_miss_rate::total     0.034236                       # miss rate for WriteReq accesses
system.cpu.dcache.WriteReq_avg_miss_latency::.cpu.data 68349.513549                       # average WriteReq miss latency
system.cpu.dcache.WriteReq_avg_miss_latency::total 68349.513549                       # average WriteReq miss latency
system.cpu.dcache.WriteReq_mshr_hits::.cpu.data        53539                       # number of WriteReq MSHR hits
system.cpu.dcache.WriteReq_mshr_hits::total        53539                       # number of WriteReq MSHR hits
system.cpu.dcache.WriteReq_mshr_misses::.cpu.data       321319                       # number of WriteReq MSHR misses
system.cpu.dcache.WriteReq_mshr_misses::total       321319                       # number of WriteReq MSHR misses
system.cpu.dcache.WriteReq_mshr_miss_latency::.cpu.data  23319312999                       # number of WriteReq MSHR miss cycles
system.cpu.dcache.WriteReq_mshr_miss_latency::total  23319312999                       # number of WriteReq MSHR miss cycles
system.cpu.dcache.WriteReq_mshr_miss_rate::.cpu.data     0.029346                       # mshr miss rate for WriteReq accesses
system.cpu.dcache.WriteReq_mshr_miss_rate::total     0.029346                       # mshr miss rate for WriteReq accesses
system.cpu.dcache.WriteReq_avg_mshr_miss_latency::.cpu.data 72573.713347                       # average WriteReq mshr miss latency
system.cpu.dcache.WriteReq_avg_mshr_miss_latency::total 72573.713347                       # average WriteReq mshr miss latency
system.cpu.dcache.SoftPFReq_hits::.cpu.data          468                       # number of SoftPFReq hits
system.cpu.dcache.SoftPFReq_hits::total           468                       # number of SoftPFReq hits
system.cpu.dcache.SoftPFReq_misses::.cpu.data         7951                       # number of SoftPFReq misses
system.cpu.dcache.SoftPFReq_misses::total         7951                       # number of SoftPFReq misses
system.cpu.dcache.SoftPFReq_accesses::.cpu.data         8419                       # number of SoftPFReq accesses(hits+misses)
system.cpu.dcache.SoftPFReq_accesses::total         8419                       # number of SoftPFReq accesses(hits+misses)
system.cpu.dcache.SoftPFReq_miss_rate::.cpu.data     0.944411                       # miss rate for SoftPFReq accesses
system.cpu.dcache.SoftPFReq_miss_rate::total     0.944411                       # miss rate for SoftPFReq accesses
system.cpu.dcache.SoftPFReq_mshr_misses::.cpu.data         7946                       # number of SoftPFReq MSHR misses
system.cpu.dcache.SoftPFReq_mshr_misses::total         7946                       # number of SoftPFReq MSHR misses
system.cpu.dcache.SoftPFReq_mshr_miss_latency::.cpu.data    812725999                       # number of SoftPFReq MSHR miss cycles
system.cpu.dcache.SoftPFReq_mshr_miss_latency::total    812725999                       # number of SoftPFReq MSHR miss cycles
system.cpu.dcache.SoftPFReq_mshr_miss_rate::.cpu.data     0.943818                       # mshr miss rate for SoftPFReq accesses
system.cpu.dcache.SoftPFReq_mshr_miss_rate::total     0.943818                       # mshr miss rate for SoftPFReq accesses
system.cpu.dcache.SoftPFReq_avg_mshr_miss_latency::.cpu.data 102281.147621                       # average SoftPFReq mshr miss latency
system.cpu.dcache.SoftPFReq_avg_mshr_miss_latency::total 102281.147621                       # average SoftPFReq mshr miss latency
system.cpu.dcache.LoadLockedReq_hits::.cpu.data           38                       # number of LoadLockedReq hits
system.cpu.dcache.LoadLockedReq_hits::total           38                       # number of LoadLockedReq hits
system.cpu.dcache.LoadLockedReq_accesses::.cpu.data           38                       # number of LoadLockedReq accesses(hits+misses)
system.cpu.dcache.LoadLockedReq_accesses::total           38                       # number of LoadLockedReq accesses(hits+misses)
system.cpu.dcache.StoreCondReq_hits::.cpu.data           38                       # number of StoreCondReq hits
system.cpu.dcache.StoreCondReq_hits::total           38                       # number of StoreCondReq hits
system.cpu.dcache.StoreCondReq_accesses::.cpu.data           38                       # number of StoreCondReq accesses(hits+misses)
system.cpu.dcache.StoreCondReq_accesses::total           38                       # number of StoreCondReq accesses(hits+misses)
system.cpu.dcache.power_state.pwrStateResidencyTicks::UNDEFINED 166934430000                       # Cumulative time (in ticks) in various power states
system.cpu.dcache.tags.tagsinuse          1013.000072                       # Cycle average of tags in use
system.cpu.dcache.tags.total_refs            52023433                       # Total number of references to valid blocks.
system.cpu.dcache.tags.sampled_refs            778510                       # Sample count of references to valid blocks.
system.cpu.dcache.tags.avg_refs             66.824361                       # Average number of references to valid blocks.
system.cpu.dcache.tags.warmup_cycle            223000                       # Cycle when the warmup percentage was hit.
system.cpu.dcache.tags.occ_blocks::.cpu.data  1013.000072                       # Average occupied blocks per requestor
system.cpu.dcache.tags.occ_percent::.cpu.data     0.989258                       # Average percentage of cache occupancy
system.cpu.dcache.tags.occ_percent::total     0.989258                       # Average percentage of cache occupancy
system.cpu.dcache.tags.occ_task_id_blocks::1024         1024                       # Occupied blocks per task id
system.cpu.dcache.tags.age_task_id_blocks_1024::0           94                       # Occupied blocks per task id
system.cpu.dcache.tags.age_task_id_blocks_1024::1          185                       # Occupied blocks per task id
system.cpu.dcache.tags.age_task_id_blocks_1024::2          680                       # Occupied blocks per task id
system.cpu.dcache.tags.age_task_id_blocks_1024::3           65                       # Occupied blocks per task id
system.cpu.dcache.tags.occ_task_id_percent::1024            1                       # Percentage of cache occupancy per task id
system.cpu.dcache.tags.tag_accesses          52857404                       # Number of tag accesses
system.cpu.dcache.tags.data_accesses         52857404                       # Number of data accesses
system.cpu.dcache.tags.power_state.pwrStateResidencyTicks::UNDEFINED 166934430000                       # Cumulative time (in ticks) in various power states
system.cpu.dtb.instHits                             0                       # ITB inst hits
system.cpu.dtb.instMisses                           0                       # ITB inst misses
system.cpu.dtb.readHits                             0                       # DTB read hits
system.cpu.dtb.readMisses                           0                       # DTB read misses
system.cpu.dtb.writeHits                            0                       # DTB write hits
system.cpu.dtb.writeMisses                          0                       # DTB write misses
system.cpu.dtb.inserts                              0                       # Number of times an entry is inserted into the TLB
system.cpu.dtb.flushTlb                             0                       # Number of times complete TLB was flushed
system.cpu.dtb.flushTlbMva                          0                       # Number of times TLB was flushed by MVA
system.cpu.dtb.flushTlbMvaAsid                      0                       # Number of times TLB was flushed by MVA & ASID
system.cpu.dtb.flushTlbAsid                         0                       # Number of times TLB was flushed by ASID
system.cpu.dtb.flushedEntries                       0                       # Number of entries that have been flushed from TLB
system.cpu.dtb.alignFaults                          0                       # Number of TLB faults due to alignment restrictions
system.cpu.dtb.prefetchFaults                       0                       # Number of TLB faults due to prefetch
system.cpu.dtb.domainFaults                         0                       # Number of TLB faults due to domain restrictions
system.cpu.dtb.permsFaults                          0                       # Number of TLB faults due to permissions restrictions
system.cpu.dtb.readAccesses                         0                       # DTB read accesses
system.cpu.dtb.writeAccesses                        0                       # DTB write accesses
system.cpu.dtb.instAccesses                         0                       # ITB inst accesses
system.cpu.dtb.hits                                 0                       # Total TLB (inst and data) hits
system.cpu.dtb.misses                               0                       # Total TLB (inst and data) misses
system.cpu.dtb.accesses                             0                       # Total TLB (inst and data) accesses
system.cpu.dtb.stage2_mmu.stage2_tlb.instHits            0                       # ITB inst hits
system.cpu.dtb.stage2_mmu.stage2_tlb.instMisses            0                       # ITB inst misses
system.cpu.dtb.stage2_mmu.stage2_tlb.readHits            0                       # DTB read hits
system.cpu.dtb.stage2_mmu.stage2_tlb.readMisses            0                       # DTB read misses
system.cpu.dtb.stage2_mmu.stage2_tlb.writeHits            0                       # DTB write hits
system.cpu.dtb.stage2_mmu.stage2_tlb.writeMisses            0                       # DTB write misses
system.cpu.dtb.stage2_mmu.stage2_tlb.inserts            0                       # Number of times an entry is inserted into the TLB
system.cpu.dtb.stage2_mmu.stage2_tlb.flushTlb            0                       # Number of times complete TLB was flushed
system.cpu.dtb.stage2_mmu.stage2_tlb.flushTlbMva            0                       # Number of times TLB was flushed by MVA
system.cpu.dtb.stage2_mmu.stage2_tlb.flushTlbMvaAsid            0                       # Number of times TLB was flushed by MVA & ASID
system.cpu.dtb.stage2_mmu.stage2_tlb.flushTlbAsid            0                       # Number of times TLB was flushed by ASID
system.cpu.dtb.stage2_mmu.stage2_tlb.flushedEntries            0                       # Number of entries that have been flushed from TLB
system.cpu.dtb.stage2_mmu.stage2_tlb.alignFaults            0                       # Number of TLB faults due to alignment restrictions
system.cpu.dtb.stage2_mmu.stage2_tlb.prefetchFaults            0                       # Number of TLB faults due to prefetch
system.cpu.dtb.stage2_mmu.stage2_tlb.domainFaults            0                       # Number of TLB faults due to domain restrictions
system.cpu.dtb.stage2_mmu.stage2_tlb.permsFaults            0                       # Number of TLB faults due to permissions restrictions
system.cpu.dtb.stage2_mmu.stage2_tlb.readAccesses            0                       # DTB read accesses
system.cpu.dtb.stage2_mmu.stage2_tlb.writeAccesses            0                       # DTB write accesses
system.cpu.dtb.stage2_mmu.stage2_tlb.instAccesses            0                       # ITB inst accesses
system.cpu.dtb.stage2_mmu.stage2_tlb.hits            0                       # Total TLB (inst and data) hits
system.cpu.dtb.stage2_mmu.stage2_tlb.misses            0                       # Total TLB (inst and data) misses
system.cpu.dtb.stage2_mmu.stage2_tlb.accesses            0                       # Total TLB (inst and data) accesses
system.cpu.dtb.stage2_mmu.stage2_tlb.walker.walks            0                       # Table walker walks requested
system.cpu.dtb.stage2_mmu.stage2_tlb.walker.requestOrigin_Requested::Data            0                       # Table walker requests started/completed, data/inst
system.cpu.dtb.stage2_mmu.stage2_tlb.walker.requestOrigin_Requested::Inst            0                       # Table walker requests started/completed, data/inst
system.cpu.dtb.stage2_mmu.stage2_tlb.walker.requestOrigin_Requested::total            0                       # Table walker requests started/completed, data/inst
system.cpu.dtb.stage2_mmu.stage2_tlb.walker.requestOrigin_Completed::Data            0                       # Table walker requests started/completed, data/inst
system.cpu.dtb.stage2_mmu.stage2_tlb.walker.requestOrigin_Completed::Inst            0                       # Table walker requests started/completed, data/inst
system.cpu.dtb.stage2_mmu.stage2_tlb.walker.requestOrigin_Completed::total            0                       # Table walker requests started/completed, data/inst
system.cpu.dtb.stage2_mmu.stage2_tlb.walker.requestOrigin::total            0                       # Table walker requests started/completed, data/inst
system.cpu.dtb.stage2_mmu.stage2_tlb.walker.power_state.pwrStateResidencyTicks::UNDEFINED 166934430000                       # Cumulative time (in ticks) in various power states
system.cpu.dtb.walker.walks                         0                       # Table walker walks requested
system.cpu.dtb.walker.requestOrigin_Requested::Data            0                       # Table walker requests started/completed, data/inst
system.cpu.dtb.walker.requestOrigin_Requested::Inst            0                       # Table walker requests started/completed, data/inst
system.cpu.dtb.walker.requestOrigin_Requested::total            0                       # Table walker requests started/completed, data/inst
system.cpu.dtb.walker.requestOrigin_Completed::Data            0                       # Table walker requests started/completed, data/inst
system.cpu.dtb.walker.requestOrigin_Completed::Inst            0                       # Table walker requests started/completed, data/inst
system.cpu.dtb.walker.requestOrigin_Completed::total            0                       # Table walker requests started/completed, data/inst
system.cpu.dtb.walker.requestOrigin::total            0                       # Table walker requests started/completed, data/inst
system.cpu.dtb.walker.power_state.pwrStateResidencyTicks::UNDEFINED 166934430000                       # Cumulative time (in ticks) in various power states
system.cpu.fetch2.intInstructions            42684852                       # Number of integer instructions successfully decoded
system.cpu.fetch2.fpInstructions                    0                       # Number of floating point instructions successfully decoded
system.cpu.fetch2.vecInstructions                   0                       # Number of SIMD instructions successfully decoded
system.cpu.fetch2.loadInstructions           43474263                       # Number of memory load instructions successfully decoded
system.cpu.fetch2.storeInstructions          11025789                       # Number of memory store instructions successfully decoded
system.cpu.fetch2.amoInstructions                   0                       # Number of memory atomic instructions successfully decoded
system.cpu.icache.demand_hits::.cpu.inst      9700373                       # number of demand (read+write) hits
system.cpu.icache.demand_hits::total          9700373                       # number of demand (read+write) hits
system.cpu.icache.overall_hits::.cpu.inst      9700373                       # number of overall hits
system.cpu.icache.overall_hits::total         9700373                       # number of overall hits
system.cpu.icache.demand_misses::.cpu.inst          875                       # number of demand (read+write) misses
system.cpu.icache.demand_misses::total            875                       # number of demand (read+write) misses
system.cpu.icache.overall_misses::.cpu.inst          875                       # number of overall misses
system.cpu.icache.overall_misses::total           875                       # number of overall misses
system.cpu.icache.demand_miss_latency::.cpu.inst     75928000                       # number of demand (read+write) miss cycles
system.cpu.icache.demand_miss_latency::total     75928000                       # number of demand (read+write) miss cycles
system.cpu.icache.overall_miss_latency::.cpu.inst     75928000                       # number of overall miss cycles
system.cpu.icache.overall_miss_latency::total     75928000                       # number of overall miss cycles
system.cpu.icache.demand_accesses::.cpu.inst      9701248                       # number of demand (read+write) accesses
system.cpu.icache.demand_accesses::total      9701248                       # number of demand (read+write) accesses
system.cpu.icache.overall_accesses::.cpu.inst      9701248                       # number of overall (read+write) accesses
system.cpu.icache.overall_accesses::total      9701248                       # number of overall (read+write) accesses
system.cpu.icache.demand_miss_rate::.cpu.inst     0.000090                       # miss rate for demand accesses
system.cpu.icache.demand_miss_rate::total     0.000090                       # miss rate for demand accesses
system.cpu.icache.overall_miss_rate::.cpu.inst     0.000090                       # miss rate for overall accesses
system.cpu.icache.overall_miss_rate::total     0.000090                       # miss rate for overall accesses
system.cpu.icache.demand_avg_miss_latency::.cpu.inst 86774.857143                       # average overall miss latency
system.cpu.icache.demand_avg_miss_latency::total 86774.857143                       # average overall miss latency
system.cpu.icache.overall_avg_miss_latency::.cpu.inst 86774.857143                       # average overall miss latency
system.cpu.icache.overall_avg_miss_latency::total 86774.857143                       # average overall miss latency
system.cpu.icache.blocked_cycles::no_mshrs            0                       # number of cycles access was blocked
system.cpu.icache.blocked_cycles::no_targets            0                       # number of cycles access was blocked
system.cpu.icache.blocked::no_mshrs                 0                       # number of cycles access was blocked
system.cpu.icache.blocked::no_targets               0                       # number of cycles access was blocked
system.cpu.icache.avg_blocked_cycles::no_mshrs          nan                       # average number of cycles each access was blocked
system.cpu.icache.avg_blocked_cycles::no_targets          nan                       # average number of cycles each access was blocked
system.cpu.icache.writebacks::.writebacks          489                       # number of writebacks
system.cpu.icache.writebacks::total               489                       # number of writebacks
system.cpu.icache.demand_mshr_misses::.cpu.inst          875                       # number of demand (read+write) MSHR misses
system.cpu.icache.demand_mshr_misses::total          875                       # number of demand (read+write) MSHR misses
system.cpu.icache.overall_mshr_misses::.cpu.inst          875                       # number of overall MSHR misses
system.cpu.icache.overall_mshr_misses::total          875                       # number of overall MSHR misses
system.cpu.icache.demand_mshr_miss_latency::.cpu.inst     74178000                       # number of demand (read+write) MSHR miss cycles
system.cpu.icache.demand_mshr_miss_latency::total     74178000                       # number of demand (read+write) MSHR miss cycles
system.cpu.icache.overall_mshr_miss_latency::.cpu.inst     74178000                       # number of overall MSHR miss cycles
system.cpu.icache.overall_mshr_miss_latency::total     74178000                       # number of overall MSHR miss cycles
system.cpu.icache.demand_mshr_miss_rate::.cpu.inst     0.000090                       # mshr miss rate for demand accesses
system.cpu.icache.demand_mshr_miss_rate::total     0.000090                       # mshr miss rate for demand accesses
system.cpu.icache.overall_mshr_miss_rate::.cpu.inst     0.000090                       # mshr miss rate for overall accesses
system.cpu.icache.overall_mshr_miss_rate::total     0.000090                       # mshr miss rate for overall accesses
system.cpu.icache.demand_avg_mshr_miss_latency::.cpu.inst 84774.857143                       # average overall mshr miss latency
system.cpu.icache.demand_avg_mshr_miss_latency::total 84774.857143                       # average overall mshr miss latency
system.cpu.icache.overall_avg_mshr_miss_latency::.cpu.inst 84774.857143                       # average overall mshr miss latency
system.cpu.icache.overall_avg_mshr_miss_latency::total 84774.857143                       # average overall mshr miss latency
system.cpu.icache.replacements                    489                       # number of replacements
system.cpu.icache.ReadReq_hits::.cpu.inst      9700373                       # number of ReadReq hits
system.cpu.icache.ReadReq_hits::total         9700373                       # number of ReadReq hits
system.cpu.icache.ReadReq_misses::.cpu.inst          875                       # number of ReadReq misses
system.cpu.icache.ReadReq_misses::total           875                       # number of ReadReq misses
system.cpu.icache.ReadReq_miss_latency::.cpu.inst     75928000                       # number of ReadReq miss cycles
system.cpu.icache.ReadReq_miss_latency::total     75928000                       # number of ReadReq miss cycles
system.cpu.icache.ReadReq_accesses::.cpu.inst      9701248                       # number of ReadReq accesses(hits+misses)
system.cpu.icache.ReadReq_accesses::total      9701248                       # number of ReadReq accesses(hits+misses)
system.cpu.icache.ReadReq_miss_rate::.cpu.inst     0.000090                       # miss rate for ReadReq accesses
system.cpu.icache.ReadReq_miss_rate::total     0.000090                       # miss rate for ReadReq accesses
system.cpu.icache.ReadReq_avg_miss_latency::.cpu.inst 86774.857143                       # average ReadReq miss latency
system.cpu.icache.ReadReq_avg_miss_latency::total 86774.857143                       # average ReadReq miss latency
system.cpu.icache.ReadReq_mshr_misses::.cpu.inst          875                       # number of ReadReq MSHR misses
system.cpu.icache.ReadReq_mshr_misses::total          875                       # number of ReadReq MSHR misses
system.cpu.icache.ReadReq_mshr_miss_latency::.cpu.inst     74178000                       # number of ReadReq MSHR miss cycles
system.cpu.icache.ReadReq_mshr_miss_latency::total     74178000                       # number of ReadReq MSHR miss cycles
system.cpu.icache.ReadReq_mshr_miss_rate::.cpu.inst     0.000090                       # mshr miss rate for ReadReq accesses
system.cpu.icache.ReadReq_mshr_miss_rate::total     0.000090                       # mshr miss rate for ReadReq accesses
system.cpu.icache.ReadReq_avg_mshr_miss_latency::.cpu.inst 84774.857143                       # average ReadReq mshr miss latency
system.cpu.icache.ReadReq_avg_mshr_miss_latency::total 84774.857143                       # average ReadReq mshr miss latency
system.cpu.icache.power_state.pwrStateResidencyTicks::UNDEFINED 166934430000                       # Cumulative time (in ticks) in various power states
system.cpu.icache.tags.tagsinuse           312.823593                       # Cycle average of tags in use
system.cpu.icache.tags.total_refs             9701248                       # Total number of references to valid blocks.
system.cpu.icache.tags.sampled_refs               875                       # Sample count of references to valid blocks.
system.cpu.icache.tags.avg_refs          11087.140571                       # Average number of references to valid blocks.
system.cpu.icache.tags.warmup_cycle            108000                       # Cycle when the warmup percentage was hit.
system.cpu.icache.tags.occ_blocks::.cpu.inst   312.823593                       # Average occupied blocks per requestor
system.cpu.icache.tags.occ_percent::.cpu.inst     0.610984                       # Average percentage of cache occupancy
system.cpu.icache.tags.occ_percent::total     0.610984                       # Average percentage of cache occupancy
system.cpu.icache.tags.occ_task_id_blocks::1024          386                       # Occupied blocks per task id
system.cpu.icache.tags.age_task_id_blocks_1024::4          386                       # Occupied blocks per task id
system.cpu.icache.tags.occ_task_id_percent::1024     0.753906                       # Percentage of cache occupancy per task id
system.cpu.icache.tags.tag_accesses           9702123                       # Number of tag accesses
system.cpu.icache.tags.data_accesses          9702123                       # Number of data accesses
system.cpu.icache.tags.power_state.pwrStateResidencyTicks::UNDEFINED 166934430000                       # Cumulative time (in ticks) in various power states
system.cpu.itb.instHits                             0                       # ITB inst hits
system.cpu.itb.instMisses                           0                       # ITB inst misses
system.cpu.itb.readHits                             0                       # DTB read hits
system.cpu.itb.readMisses                           0                       # DTB read misses
system.cpu.itb.writeHits                            0                       # DTB write hits
system.cpu.itb.writeMisses                          0                       # DTB write misses
system.cpu.itb.inserts                              0                       # Number of times an entry is inserted into the TLB
system.cpu.itb.flushTlb                             0                       # Number of times complete TLB was flushed
system.cpu.itb.flushTlbMva                          0                       # Number of times TLB was flushed by MVA
system.cpu.itb.flushTlbMvaAsid                      0                       # Number of times TLB was flushed by MVA & ASID
system.cpu.itb.flushTlbAsid                         0                       # Number of times TLB was flushed by ASID
system.cpu.itb.flushedEntries                       0                       # Number of entries that have been flushed from TLB
system.cpu.itb.alignFaults                          0                       # Number of TLB faults due to alignment restrictions
system.cpu.itb.prefetchFaults                       0                       # Number of TLB faults due to prefetch
system.cpu.itb.domainFaults                         0                       # Number of TLB faults due to domain restrictions
system.cpu.itb.permsFaults                          0                       # Number of TLB faults due to permissions restrictions
system.cpu.itb.readAccesses                         0                       # DTB read accesses
system.cpu.itb.writeAccesses                        0                       # DTB write accesses
system.cpu.itb.instAccesses                         0                       # ITB inst accesses
system.cpu.itb.hits                                 0                       # Total TLB (inst and data) hits
system.cpu.itb.misses                               0                       # Total TLB (inst and data) misses
system.cpu.itb.accesses                             0                       # Total TLB (inst and data) accesses
system.cpu.itb.stage2_mmu.stage2_tlb.instHits            0                       # ITB inst hits
system.cpu.itb.stage2_mmu.stage2_tlb.instMisses            0                       # ITB inst misses
system.cpu.itb.stage2_mmu.stage2_tlb.readHits            0                       # DTB read hits
system.cpu.itb.stage2_mmu.stage2_tlb.readMisses            0                       # DTB read misses
system.cpu.itb.stage2_mmu.stage2_tlb.writeHits            0                       # DTB write hits
system.cpu.itb.stage2_mmu.stage2_tlb.writeMisses            0                       # DTB write misses
system.cpu.itb.stage2_mmu.stage2_tlb.inserts            0                       # Number of times an entry is inserted into the TLB
system.cpu.itb.stage2_mmu.stage2_tlb.flushTlb            0                       # Number of times complete TLB was flushed
system.cpu.itb.stage2_mmu.stage2_tlb.flushTlbMva            0                       # Number of times TLB was flushed by MVA
system.cpu.itb.stage2_mmu.stage2_tlb.flushTlbMvaAsid            0                       # Number of times TLB was flushed by MVA & ASID
system.cpu.itb.stage2_mmu.stage2_tlb.flushTlbAsid            0                       # Number of times TLB was flushed by ASID
system.cpu.itb.stage2_mmu.stage2_tlb.flushedEntries            0                       # Number of entries that have been flushed from TLB
system.cpu.itb.stage2_mmu.stage2_tlb.alignFaults            0                       # Number of TLB faults due to alignment restrictions
system.cpu.itb.stage2_mmu.stage2_tlb.prefetchFaults            0                       # Number of TLB faults due to prefetch
system.cpu.itb.stage2_mmu.stage2_tlb.domainFaults            0                       # Number of TLB faults due to domain restrictions
system.cpu.itb.stage2_mmu.stage2_tlb.permsFaults            0                       # Number of TLB faults due to permissions restrictions
system.cpu.itb.stage2_mmu.stage2_tlb.readAccesses            0                       # DTB read accesses
system.cpu.itb.stage2_mmu.stage2_tlb.writeAccesses            0                       # DTB write accesses
system.cpu.itb.stage2_mmu.stage2_tlb.instAccesses            0                       # ITB inst accesses
system.cpu.itb.stage2_mmu.stage2_tlb.hits            0                       # Total TLB (inst and data) hits
system.cpu.itb.stage2_mmu.stage2_tlb.misses            0                       # Total TLB (inst and data) misses
system.cpu.itb.stage2_mmu.stage2_tlb.accesses            0                       # Total TLB (inst and data) accesses
system.cpu.itb.stage2_mmu.stage2_tlb.walker.walks            0                       # Table walker walks requested
system.cpu.itb.stage2_mmu.stage2_tlb.walker.requestOrigin_Requested::Data            0                       # Table walker requests started/completed, data/inst
system.cpu.itb.stage2_mmu.stage2_tlb.walker.requestOrigin_Requested::Inst            0                       # Table walker requests started/completed, data/inst
system.cpu.itb.stage2_mmu.stage2_tlb.walker.requestOrigin_Requested::total            0                       # Table walker requests started/completed, data/inst
system.cpu.itb.stage2_mmu.stage2_tlb.walker.requestOrigin_Completed::Data            0                       # Table walker requests started/completed, data/inst
system.cpu.itb.stage2_mmu.stage2_tlb.walker.requestOrigin_Completed::Inst            0                       # Table walker requests started/completed, data/inst
system.cpu.itb.stage2_mmu.stage2_tlb.walker.requestOrigin_Completed::total            0                       # Table walker requests started/completed, data/inst
system.cpu.itb.stage2_mmu.stage2_tlb.walker.requestOrigin::total            0                       # Table walker requests started/completed, data/inst
system.cpu.itb.stage2_mmu.stage2_tlb.walker.power_state.pwrStateResidencyTicks::UNDEFINED 166934430000                       # Cumulative time (in ticks) in various power states
system.cpu.itb.walker.walks                         0                       # Table walker walks requested
system.cpu.itb.walker.requestOrigin_Requested::Data            0                       # Table walker requests started/completed, data/inst
system.cpu.itb.walker.requestOrigin_Requested::Inst            0                       # Table walker requests started/completed, data/inst
system.cpu.itb.walker.requestOrigin_Requested::total            0                       # Table walker requests started/completed, data/inst
system.cpu.itb.walker.requestOrigin_Completed::Data            0                       # Table walker requests started/completed, data/inst
system.cpu.itb.walker.requestOrigin_Completed::Inst            0                       # Table walker requests started/completed, data/inst
system.cpu.itb.walker.requestOrigin_Completed::total            0                       # Table walker requests started/completed, data/inst
system.cpu.itb.walker.requestOrigin::total            0                       # Table walker requests started/completed, data/inst
system.cpu.itb.walker.power_state.pwrStateResidencyTicks::UNDEFINED 166934430000                       # Cumulative time (in ticks) in various power states
system.cpu.power_state.pwrStateResidencyTicks::ON 166934430000                       # Cumulative time (in ticks) in various power states
system.cpu.thread_0.numInsts                100000001                       # Number of Instructions committed
system.cpu.thread_0.numOps                  100196375                       # Number of Ops committed
system.cpu.thread_0.numMemRefs                      0                       # Number of Memory References
system.cpu_clk_domain.clock                      1000                       # Clock period in ticks
system.cpu_voltage_domain.voltage                   1                       # Voltage in Volts
system.l2.demand_hits::.cpu.inst                  194                       # number of demand (read+write) hits
system.l2.demand_hits::.cpu.data               491813                       # number of demand (read+write) hits
system.l2.demand_hits::total                   492007                       # number of demand (read+write) hits
system.l2.overall_hits::.cpu.inst                 194                       # number of overall hits
system.l2.overall_hits::.cpu.data              491813                       # number of overall hits
system.l2.overall_hits::total                  492007                       # number of overall hits
system.l2.demand_misses::.cpu.inst                681                       # number of demand (read+write) misses
system.l2.demand_misses::.cpu.data             286698                       # number of demand (read+write) misses
system.l2.demand_misses::total                 287379                       # number of demand (read+write) misses
system.l2.overall_misses::.cpu.inst               681                       # number of overall misses
system.l2.overall_misses::.cpu.data            286698                       # number of overall misses
system.l2.overall_misses::total                287379                       # number of overall misses
system.l2.demand_miss_latency::.cpu.inst     67435000                       # number of demand (read+write) miss cycles
system.l2.demand_miss_latency::.cpu.data  30569711000                       # number of demand (read+write) miss cycles
system.l2.demand_miss_latency::total      30637146000                       # number of demand (read+write) miss cycles
system.l2.overall_miss_latency::.cpu.inst     67435000                       # number of overall miss cycles
system.l2.overall_miss_latency::.cpu.data  30569711000                       # number of overall miss cycles
system.l2.overall_miss_latency::total     30637146000                       # number of overall miss cycles
system.l2.demand_accesses::.cpu.inst              875                       # number of demand (read+write) accesses
system.l2.demand_accesses::.cpu.data           778511                       # number of demand (read+write) accesses
system.l2.demand_accesses::total               779386                       # number of demand (read+write) accesses
system.l2.overall_accesses::.cpu.inst             875                       # number of overall (read+write) accesses
system.l2.overall_accesses::.cpu.data          778511                       # number of overall (read+write) accesses
system.l2.overall_accesses::total              779386                       # number of overall (read+write) accesses
system.l2.demand_miss_rate::.cpu.inst        0.778286                       # miss rate for demand accesses
system.l2.demand_miss_rate::.cpu.data        0.368265                       # miss rate for demand accesses
system.l2.demand_miss_rate::total            0.368725                       # miss rate for demand accesses
system.l2.overall_miss_rate::.cpu.inst       0.778286                       # miss rate for overall accesses
system.l2.overall_miss_rate::.cpu.data       0.368265                       # miss rate for overall accesses
system.l2.overall_miss_rate::total           0.368725                       # miss rate for overall accesses
system.l2.demand_avg_miss_latency::.cpu.inst 99023.494860                       # average overall miss latency
system.l2.demand_avg_miss_latency::.cpu.data 106626.872179                       # average overall miss latency
system.l2.demand_avg_miss_latency::total 106608.854509                       # average overall miss latency
system.l2.overall_avg_miss_latency::.cpu.inst 99023.494860                       # average overall miss latency
system.l2.overall_avg_miss_latency::.cpu.data 106626.872179                       # average overall miss latency
system.l2.overall_avg_miss_latency::total 106608.854509                       # average overall miss latency
system.l2.blocked_cycles::no_mshrs                  0                       # number of cycles access was blocked
system.l2.blocked_cycles::no_targets                0                       # number of cycles access was blocked
system.l2.blocked::no_mshrs                         0                       # number of cycles access was blocked
system.l2.blocked::no_targets                       0                       # number of cycles access was blocked
system.l2.avg_blocked_cycles::no_mshrs            nan                       # average number of cycles each access was blocked
system.l2.avg_blocked_cycles::no_targets          nan                       # average number of cycles each access was blocked
system.l2.writebacks::.writebacks              199661                       # number of writebacks
system.l2.writebacks::total                    199661                       # number of writebacks
system.l2.demand_mshr_hits::.cpu.data               4                       # number of demand (read+write) MSHR hits
system.l2.demand_mshr_hits::total                   4                       # number of demand (read+write) MSHR hits
system.l2.overall_mshr_hits::.cpu.data              4                       # number of overall MSHR hits
system.l2.overall_mshr_hits::total                  4                       # number of overall MSHR hits
system.l2.demand_mshr_misses::.cpu.inst           681                       # number of demand (read+write) MSHR misses
system.l2.demand_mshr_misses::.cpu.data        286694                       # number of demand (read+write) MSHR misses
system.l2.demand_mshr_misses::total            287375                       # number of demand (read+write) MSHR misses
system.l2.overall_mshr_misses::.cpu.inst          681                       # number of overall MSHR misses
system.l2.overall_mshr_misses::.cpu.data       286694                       # number of overall MSHR misses
system.l2.overall_mshr_misses::total           287375                       # number of overall MSHR misses
system.l2.demand_mshr_miss_latency::.cpu.inst     53815000                       # number of demand (read+write) MSHR miss cycles
system.l2.demand_mshr_miss_latency::.cpu.data  24835334000                       # number of demand (read+write) MSHR miss cycles
system.l2.demand_mshr_miss_latency::total  24889149000                       # number of demand (read+write) MSHR miss cycles
system.l2.overall_mshr_miss_latency::.cpu.inst     53815000                       # number of overall MSHR miss cycles
system.l2.overall_mshr_miss_latency::.cpu.data  24835334000                       # number of overall MSHR miss cycles
system.l2.overall_mshr_miss_latency::total  24889149000                       # number of overall MSHR miss cycles
system.l2.demand_mshr_miss_rate::.cpu.inst     0.778286                       # mshr miss rate for demand accesses
system.l2.demand_mshr_miss_rate::.cpu.data     0.368259                       # mshr miss rate for demand accesses
system.l2.demand_mshr_miss_rate::total       0.368720                       # mshr miss rate for demand accesses
system.l2.overall_mshr_miss_rate::.cpu.inst     0.778286                       # mshr miss rate for overall accesses
system.l2.overall_mshr_miss_rate::.cpu.data     0.368259                       # mshr miss rate for overall accesses
system.l2.overall_mshr_miss_rate::total      0.368720                       # mshr miss rate for overall accesses
system.l2.demand_avg_mshr_miss_latency::.cpu.inst 79023.494860                       # average overall mshr miss latency
system.l2.demand_avg_mshr_miss_latency::.cpu.data 86626.626298                       # average overall mshr miss latency
system.l2.demand_avg_mshr_miss_latency::total 86608.608960                       # average overall mshr miss latency
system.l2.overall_avg_mshr_miss_latency::.cpu.inst 79023.494860                       # average overall mshr miss latency
system.l2.overall_avg_mshr_miss_latency::.cpu.data 86626.626298                       # average overall mshr miss latency
system.l2.overall_avg_mshr_miss_latency::total 86608.608960                       # average overall mshr miss latency
system.l2.replacements                         288281                       # number of replacements
system.l2.WritebackDirty_hits::.writebacks       677833                       # number of WritebackDirty hits
system.l2.WritebackDirty_hits::total           677833                       # number of WritebackDirty hits
system.l2.WritebackDirty_accesses::.writebacks       677833                       # number of WritebackDirty accesses(hits+misses)
system.l2.WritebackDirty_accesses::total       677833                       # number of WritebackDirty accesses(hits+misses)
system.l2.WritebackClean_hits::.writebacks          471                       # number of WritebackClean hits
system.l2.WritebackClean_hits::total              471                       # number of WritebackClean hits
system.l2.WritebackClean_accesses::.writebacks          471                       # number of WritebackClean accesses(hits+misses)
system.l2.WritebackClean_accesses::total          471                       # number of WritebackClean accesses(hits+misses)
system.l2.CleanEvict_mshr_misses::.writebacks         4661                       # number of CleanEvict MSHR misses
system.l2.CleanEvict_mshr_misses::total          4661                       # number of CleanEvict MSHR misses
system.l2.CleanEvict_mshr_miss_rate::.writebacks          inf                       # mshr miss rate for CleanEvict accesses
system.l2.CleanEvict_mshr_miss_rate::total          inf                       # mshr miss rate for CleanEvict accesses
system.l2.ReadExReq_hits::.cpu.data            144651                       # number of ReadExReq hits
system.l2.ReadExReq_hits::total                144651                       # number of ReadExReq hits
system.l2.ReadExReq_misses::.cpu.data          176836                       # number of ReadExReq misses
system.l2.ReadExReq_misses::total              176836                       # number of ReadExReq misses
system.l2.ReadExReq_miss_latency::.cpu.data  19223612000                       # number of ReadExReq miss cycles
system.l2.ReadExReq_miss_latency::total   19223612000                       # number of ReadExReq miss cycles
system.l2.ReadExReq_accesses::.cpu.data        321487                       # number of ReadExReq accesses(hits+misses)
system.l2.ReadExReq_accesses::total            321487                       # number of ReadExReq accesses(hits+misses)
system.l2.ReadExReq_miss_rate::.cpu.data     0.550056                       # miss rate for ReadExReq accesses
system.l2.ReadExReq_miss_rate::total         0.550056                       # miss rate for ReadExReq accesses
system.l2.ReadExReq_avg_miss_latency::.cpu.data 108708.701848                       # average ReadExReq miss latency
system.l2.ReadExReq_avg_miss_latency::total 108708.701848                       # average ReadExReq miss latency
system.l2.ReadExReq_mshr_misses::.cpu.data       176836                       # number of ReadExReq MSHR misses
system.l2.ReadExReq_mshr_misses::total         176836                       # number of ReadExReq MSHR misses
system.l2.ReadExReq_mshr_miss_latency::.cpu.data  15686912000                       # number of ReadExReq MSHR miss cycles
system.l2.ReadExReq_mshr_miss_latency::total  15686912000                       # number of ReadExReq MSHR miss cycles
system.l2.ReadExReq_mshr_miss_rate::.cpu.data     0.550056                       # mshr miss rate for ReadExReq accesses
system.l2.ReadExReq_mshr_miss_rate::total     0.550056                       # mshr miss rate for ReadExReq accesses
system.l2.ReadExReq_avg_mshr_miss_latency::.cpu.data 88708.814947                       # average ReadExReq mshr miss latency
system.l2.ReadExReq_avg_mshr_miss_latency::total 88708.814947                       # average ReadExReq mshr miss latency
system.l2.ReadCleanReq_hits::.cpu.inst            194                       # number of ReadCleanReq hits
system.l2.ReadCleanReq_hits::total                194                       # number of ReadCleanReq hits
system.l2.ReadCleanReq_misses::.cpu.inst          681                       # number of ReadCleanReq misses
system.l2.ReadCleanReq_misses::total              681                       # number of ReadCleanReq misses
system.l2.ReadCleanReq_miss_latency::.cpu.inst     67435000                       # number of ReadCleanReq miss cycles
system.l2.ReadCleanReq_miss_latency::total     67435000                       # number of ReadCleanReq miss cycles
system.l2.ReadCleanReq_accesses::.cpu.inst          875                       # number of ReadCleanReq accesses(hits+misses)
system.l2.ReadCleanReq_accesses::total            875                       # number of ReadCleanReq accesses(hits+misses)
system.l2.ReadCleanReq_miss_rate::.cpu.inst     0.778286                       # miss rate for ReadCleanReq accesses
system.l2.ReadCleanReq_miss_rate::total      0.778286                       # miss rate for ReadCleanReq accesses
system.l2.ReadCleanReq_avg_miss_latency::.cpu.inst 99023.494860                       # average ReadCleanReq miss latency
system.l2.ReadCleanReq_avg_miss_latency::total 99023.494860                       # average ReadCleanReq miss latency
system.l2.ReadCleanReq_mshr_misses::.cpu.inst          681                       # number of ReadCleanReq MSHR misses
system.l2.ReadCleanReq_mshr_misses::total          681                       # number of ReadCleanReq MSHR misses
system.l2.ReadCleanReq_mshr_miss_latency::.cpu.inst     53815000                       # number of ReadCleanReq MSHR miss cycles
system.l2.ReadCleanReq_mshr_miss_latency::total     53815000                       # number of ReadCleanReq MSHR miss cycles
system.l2.ReadCleanReq_mshr_miss_rate::.cpu.inst     0.778286                       # mshr miss rate for ReadCleanReq accesses
system.l2.ReadCleanReq_mshr_miss_rate::total     0.778286                       # mshr miss rate for ReadCleanReq accesses
system.l2.ReadCleanReq_avg_mshr_miss_latency::.cpu.inst 79023.494860                       # average ReadCleanReq mshr miss latency
system.l2.ReadCleanReq_avg_mshr_miss_latency::total 79023.494860                       # average ReadCleanReq mshr miss latency
system.l2.ReadSharedReq_hits::.cpu.data        347162                       # number of ReadSharedReq hits
system.l2.ReadSharedReq_hits::total            347162                       # number of ReadSharedReq hits
system.l2.ReadSharedReq_misses::.cpu.data       109862                       # number of ReadSharedReq misses
system.l2.ReadSharedReq_misses::total          109862                       # number of ReadSharedReq misses
system.l2.ReadSharedReq_miss_latency::.cpu.data  11346099000                       # number of ReadSharedReq miss cycles
system.l2.ReadSharedReq_miss_latency::total  11346099000                       # number of ReadSharedReq miss cycles
system.l2.ReadSharedReq_accesses::.cpu.data       457024                       # number of ReadSharedReq accesses(hits+misses)
system.l2.ReadSharedReq_accesses::total        457024                       # number of ReadSharedReq accesses(hits+misses)
system.l2.ReadSharedReq_miss_rate::.cpu.data     0.240386                       # miss rate for ReadSharedReq accesses
system.l2.ReadSharedReq_miss_rate::total     0.240386                       # miss rate for ReadSharedReq accesses
system.l2.ReadSharedReq_avg_miss_latency::.cpu.data 103275.918880                       # average ReadSharedReq miss latency
system.l2.ReadSharedReq_avg_miss_latency::total 103275.918880                       # average ReadSharedReq miss latency
system.l2.ReadSharedReq_mshr_hits::.cpu.data            4                       # number of ReadSharedReq MSHR hits
system.l2.ReadSharedReq_mshr_hits::total            4                       # number of ReadSharedReq MSHR hits
system.l2.ReadSharedReq_mshr_misses::.cpu.data       109858                       # number of ReadSharedReq MSHR misses
system.l2.ReadSharedReq_mshr_misses::total       109858                       # number of ReadSharedReq MSHR misses
system.l2.ReadSharedReq_mshr_miss_latency::.cpu.data   9148422000                       # number of ReadSharedReq MSHR miss cycles
system.l2.ReadSharedReq_mshr_miss_latency::total   9148422000                       # number of ReadSharedReq MSHR miss cycles
system.l2.ReadSharedReq_mshr_miss_rate::.cpu.data     0.240377                       # mshr miss rate for ReadSharedReq accesses
system.l2.ReadSharedReq_mshr_miss_rate::total     0.240377                       # mshr miss rate for ReadSharedReq accesses
system.l2.ReadSharedReq_avg_mshr_miss_latency::.cpu.data 83274.973147                       # average ReadSharedReq mshr miss latency
system.l2.ReadSharedReq_avg_mshr_miss_latency::total 83274.973147                       # average ReadSharedReq mshr miss latency
system.l2.power_state.pwrStateResidencyTicks::UNDEFINED 166934430000                       # Cumulative time (in ticks) in various power states
system.l2.tags.tagsinuse                  8085.029610                       # Cycle average of tags in use
system.l2.tags.total_refs                     1551984                       # Total number of references to valid blocks.
system.l2.tags.sampled_refs                    296473                       # Sample count of references to valid blocks.
system.l2.tags.avg_refs                      5.234824                       # Average number of references to valid blocks.
system.l2.tags.warmup_cycle                     87000                       # Cycle when the warmup percentage was hit.
system.l2.tags.occ_blocks::.writebacks     179.556185                       # Average occupied blocks per requestor
system.l2.tags.occ_blocks::.cpu.inst        18.282892                       # Average occupied blocks per requestor
system.l2.tags.occ_blocks::.cpu.data      7887.190533                       # Average occupied blocks per requestor
system.l2.tags.occ_percent::.writebacks      0.021918                       # Average percentage of cache occupancy
system.l2.tags.occ_percent::.cpu.inst        0.002232                       # Average percentage of cache occupancy
system.l2.tags.occ_percent::.cpu.data        0.962792                       # Average percentage of cache occupancy
system.l2.tags.occ_percent::total            0.986942                       # Average percentage of cache occupancy
system.l2.tags.occ_task_id_blocks::1024          8192                       # Occupied blocks per task id
system.l2.tags.age_task_id_blocks_1024::0           24                       # Occupied blocks per task id
system.l2.tags.age_task_id_blocks_1024::1          221                       # Occupied blocks per task id
system.l2.tags.age_task_id_blocks_1024::2         2318                       # Occupied blocks per task id
system.l2.tags.age_task_id_blocks_1024::3         5055                       # Occupied blocks per task id
system.l2.tags.age_task_id_blocks_1024::4          574                       # Occupied blocks per task id
system.l2.tags.occ_task_id_percent::1024            1                       # Percentage of cache occupancy per task id
system.l2.tags.tag_accesses                   3409773                       # Number of tag accesses
system.l2.tags.data_accesses                  3409773                       # Number of data accesses
system.l2.tags.power_state.pwrStateResidencyTicks::UNDEFINED 166934430000                       # Cumulative time (in ticks) in various power states
system.mem_ctrls.avgPriority_.writebacks::samples    199635.00                       # Average QoS priority value for accepted requests
system.mem_ctrls.avgPriority_.cpu.inst::samples       681.00                       # Average QoS priority value for accepted requests
system.mem_ctrls.avgPriority_.cpu.data::samples    285810.00                       # Average QoS priority value for accepted requests
system.mem_ctrls.priorityMinLatency      0.000000018750                       # per QoS priority minimum request to response latency (s)
system.mem_ctrls.priorityMaxLatency      0.006113440500                       # per QoS priority maximum request to response latency (s)
system.mem_ctrls.numReadWriteTurnArounds        11707                       # Number of turnarounds from READ to WRITE
system.mem_ctrls.numWriteReadTurnArounds        11707                       # Number of turnarounds from WRITE to READ
system.mem_ctrls.numStayReadState              801873                       # Number of times bus staying in READ state
system.mem_ctrls.numStayWriteState             188214                       # Number of times bus staying in WRITE state
system.mem_ctrls.readReqs                      287375                       # Number of read requests accepted
system.mem_ctrls.writeReqs                     199661                       # Number of write requests accepted
system.mem_ctrls.readBursts                    287375                       # Number of controller read bursts, including those serviced by the write queue
system.mem_ctrls.writeBursts                   199661                       # Number of controller write bursts, including those merged in the write queue
system.mem_ctrls.servicedByWrQ                    884                       # Number of controller read bursts serviced by the write queue
system.mem_ctrls.mergedWrBursts                    26                       # Number of controller write bursts merged with an existing one
system.mem_ctrls.neitherReadNorWriteReqs            0                       # Number of requests that are neither read nor write
system.mem_ctrls.avgRdQLen                       1.05                       # Average read queue length when enqueuing
system.mem_ctrls.avgWrQLen                      24.92                       # Average write queue length when enqueuing
system.mem_ctrls.numRdRetry                         0                       # Number of times read queue was full causing retry
system.mem_ctrls.numWrRetry                         0                       # Number of times write queue was full causing retry
system.mem_ctrls.readPktSize::0                     0                       # Read request sizes (log2)
system.mem_ctrls.readPktSize::1                     0                       # Read request sizes (log2)
system.mem_ctrls.readPktSize::2                     0                       # Read request sizes (log2)
system.mem_ctrls.readPktSize::3                     0                       # Read request sizes (log2)
system.mem_ctrls.readPktSize::4                     0                       # Read request sizes (log2)
system.mem_ctrls.readPktSize::5                     0                       # Read request sizes (log2)
system.mem_ctrls.readPktSize::6                287375                       # Read request sizes (log2)
system.mem_ctrls.writePktSize::0                    0                       # Write request sizes (log2)
system.mem_ctrls.writePktSize::1                    0                       # Write request sizes (log2)
system.mem_ctrls.writePktSize::2                    0                       # Write request sizes (log2)
system.mem_ctrls.writePktSize::3                    0                       # Write request sizes (log2)
system.mem_ctrls.writePktSize::4                    0                       # Write request sizes (log2)
system.mem_ctrls.writePktSize::5                    0                       # Write request sizes (log2)
system.mem_ctrls.writePktSize::6               199661                       # Write request sizes (log2)
system.mem_ctrls.rdQLenPdf::0                  231747                       # What read queue length does an incoming req see
system.mem_ctrls.rdQLenPdf::1                   54461                       # What read queue length does an incoming req see
system.mem_ctrls.rdQLenPdf::2                     162                       # What read queue length does an incoming req see
system.mem_ctrls.rdQLenPdf::3                     120                       # What read queue length does an incoming req see
system.mem_ctrls.rdQLenPdf::4                       1                       # What read queue length does an incoming req see
system.mem_ctrls.rdQLenPdf::5                       0                       # What read queue length does an incoming req see
system.mem_ctrls.rdQLenPdf::6                       0                       # What read queue length does an incoming req see
system.mem_ctrls.rdQLenPdf::7                       0                       # What read queue length does an incoming req see
system.mem_ctrls.rdQLenPdf::8                       0                       # What read queue length does an incoming req see
[...]
system.mem_ctrls.dram.bw_write::.writebacks     76546845                       # Write bandwidth from this memory (bytes/s)
system.mem_ctrls.dram.bw_write::total        76546845                       # Write bandwidth from this memory (bytes/s)
system.mem_ctrls.dram.bw_total::.writebacks     76546845                       # Total bandwidth to/from this memory (bytes/s)
system.mem_ctrls.dram.bw_total::.cpu.inst       261085                       # Total bandwidth to/from this memory (bytes/s)
system.mem_ctrls.dram.bw_total::.cpu.data    109913527                       # Total bandwidth to/from this memory (bytes/s)
system.mem_ctrls.dram.bw_total::total       186721457                       # Total bandwidth to/from this memory (bytes/s)
system.mem_ctrls.dram.readBursts               286491                       # Number of DRAM read bursts
system.mem_ctrls.dram.writeBursts              199620                       # Number of DRAM write bursts
system.mem_ctrls.dram.perBankRdBursts::0        17603                       # Per bank write bursts
system.mem_ctrls.dram.perBankRdBursts::1        17419                       # Per bank write bursts
system.mem_ctrls.dram.perBankRdBursts::2        17982                       # Per bank write bursts
system.mem_ctrls.dram.perBankRdBursts::3        17375                       # Per bank write bursts
system.mem_ctrls.dram.perBankRdBursts::4        18121                       # Per bank write bursts
system.mem_ctrls.dram.perBankRdBursts::5        16884                       # Per bank write bursts
system.mem_ctrls.dram.perBankRdBursts::6        19371                       # Per bank write bursts
system.mem_ctrls.dram.perBankRdBursts::7        19192                       # Per bank write bursts
system.mem_ctrls.dram.perBankRdBursts::8        17878                       # Per bank write bursts
system.mem_ctrls.dram.perBankRdBursts::9        16795                       # Per bank write bursts
system.mem_ctrls.dram.perBankRdBursts::10        19227                       # Per bank write bursts
system.mem_ctrls.dram.perBankRdBursts::11        16819                       # Per bank write bursts
system.mem_ctrls.dram.perBankRdBursts::12        17708                       # Per bank write bursts
system.mem_ctrls.dram.perBankRdBursts::13        19472                       # Per bank write bursts
system.mem_ctrls.dram.perBankRdBursts::14        17642                       # Per bank write bursts
system.mem_ctrls.dram.perBankRdBursts::15        17003                       # Per bank write bursts
system.mem_ctrls.dram.perBankWrBursts::0        11975                       # Per bank write bursts
system.mem_ctrls.dram.perBankWrBursts::1        11837                       # Per bank write bursts
system.mem_ctrls.dram.perBankWrBursts::2        12468                       # Per bank write bursts
system.mem_ctrls.dram.perBankWrBursts::3        11805                       # Per bank write bursts
system.mem_ctrls.dram.perBankWrBursts::4        12701                       # Per bank write bursts
system.mem_ctrls.dram.perBankWrBursts::5        11639                       # Per bank write bursts
system.mem_ctrls.dram.perBankWrBursts::6        14122                       # Per bank write bursts
system.mem_ctrls.dram.perBankWrBursts::7        13824                       # Per bank write bursts
system.mem_ctrls.dram.perBankWrBursts::8        12715                       # Per bank write bursts
system.mem_ctrls.dram.perBankWrBursts::9        11695                       # Per bank write bursts
system.mem_ctrls.dram.perBankWrBursts::10        13901                       # Per bank write bursts
system.mem_ctrls.dram.perBankWrBursts::11        11258                       # Per bank write bursts
system.mem_ctrls.dram.perBankWrBursts::12        12111                       # Per bank write bursts
system.mem_ctrls.dram.perBankWrBursts::13        13910                       # Per bank write bursts
system.mem_ctrls.dram.perBankWrBursts::14        12143                       # Per bank write bursts
system.mem_ctrls.dram.perBankWrBursts::15        11516                       # Per bank write bursts
system.mem_ctrls.dram.totQLat              4736461000                       # Total ticks spent queuing
system.mem_ctrls.dram.totBusLat            1432455000                       # Total ticks spent in databus transfers
system.mem_ctrls.dram.totMemAccLat        10108167250                       # Total ticks spent from burst creation until serviced by the DRAM
system.mem_ctrls.dram.avgQLat                16532.67                       # Average queueing delay per DRAM burst
system.mem_ctrls.dram.avgBusLat               5000.00                       # Average bus latency per DRAM burst
system.mem_ctrls.dram.avgMemAccLat           35282.67                       # Average memory access latency per DRAM burst
system.mem_ctrls.dram.readRowHits              145995                       # Number of row buffer hits during reads
system.mem_ctrls.dram.writeRowHits             101898                       # Number of row buffer hits during writes
system.mem_ctrls.dram.readRowHitRate            50.96                       # Row buffer hit rate for reads
system.mem_ctrls.dram.writeRowHitRate           51.05                       # Row buffer hit rate for writes
system.mem_ctrls.dram.bytesPerActivate::samples       238210                       # Bytes accessed per row activation
system.mem_ctrls.dram.bytesPerActivate::mean   130.600999                       # Bytes accessed per row activation
system.mem_ctrls.dram.bytesPerActivate::gmean    88.210439                       # Bytes accessed per row activation
system.mem_ctrls.dram.bytesPerActivate::stdev   188.369714                       # Bytes accessed per row activation
system.mem_ctrls.dram.bytesPerActivate::0-127       183662     77.10%     77.10% # Bytes accessed per row activation
system.mem_ctrls.dram.bytesPerActivate::128-255        29416     12.35%     89.45% # Bytes accessed per row activation
system.mem_ctrls.dram.bytesPerActivate::256-383         5797      2.43%     91.88% # Bytes accessed per row activation
system.mem_ctrls.dram.bytesPerActivate::384-511         1446      0.61%     92.49% # Bytes accessed per row activation
system.mem_ctrls.dram.bytesPerActivate::512-639         9432      3.96%     96.45% # Bytes accessed per row activation
system.mem_ctrls.dram.bytesPerActivate::640-767          899      0.38%     96.83% # Bytes accessed per row activation
system.mem_ctrls.dram.bytesPerActivate::768-895          750      0.31%     97.14% # Bytes accessed per row activation
system.mem_ctrls.dram.bytesPerActivate::896-1023          507      0.21%     97.35% # Bytes accessed per row activation
system.mem_ctrls.dram.bytesPerActivate::1024-1151         6301      2.65%    100.00% # Bytes accessed per row activation
system.mem_ctrls.dram.bytesPerActivate::total       238210                       # Bytes accessed per row activation
system.mem_ctrls.dram.bytesRead              18335424                       # Total number of bytes read from DRAM
system.mem_ctrls.dram.bytesWritten           12775680                       # Total number of bytes written to DRAM
system.mem_ctrls.dram.avgRdBW              109.836084                       # Average DRAM read bandwidth in MiBytes/s
system.mem_ctrls.dram.avgWrBW               76.531127                       # Average DRAM write bandwidth in MiBytes/s
system.mem_ctrls.dram.peakBW                 12800.00                       # Theoretical peak bandwidth in MiByte/s
system.mem_ctrls.dram.busUtil                    1.46                       # Data bus utilization in percentage
system.mem_ctrls.dram.busUtilRead                0.86                       # Data bus utilization in percentage for reads
system.mem_ctrls.dram.busUtilWrite               0.60                       # Data bus utilization in percentage for writes
system.mem_ctrls.dram.pageHitRate               51.00                       # Row buffer hit rate, read and write combined
system.mem_ctrls.dram.power_state.pwrStateResidencyTicks::UNDEFINED 166934430000                       # Cumulative time (in ticks) in various power states
system.mem_ctrls.dram.rank0.actEnergy       855936060                       # Energy for activate commands per rank (pJ)
system.mem_ctrls.dram.rank0.preEnergy       454925625                       # Energy for precharge commands per rank (pJ)
system.mem_ctrls.dram.rank0.readEnergy     1027781580                       # Energy for read commands per rank (pJ)
system.mem_ctrls.dram.rank0.writeEnergy     523936620                       # Energy for write commands per rank (pJ)
system.mem_ctrls.dram.rank0.refreshEnergy 13177266960.000002                       # Energy for refresh commands per rank (pJ)
system.mem_ctrls.dram.rank0.actBackEnergy  41107799220                       # Energy for active background per rank (pJ)
system.mem_ctrls.dram.rank0.preBackEnergy  29485727040                       # Energy for precharge background per rank (pJ)
system.mem_ctrls.dram.rank0.actPowerDownEnergy            0                       # Energy for active power-down per rank (pJ)
system.mem_ctrls.dram.rank0.prePowerDownEnergy            0                       # Energy for precharge power-down per rank (pJ)
system.mem_ctrls.dram.rank0.selfRefreshEnergy            0                       # Energy for self refresh per rank (pJ)
system.mem_ctrls.dram.rank0.totalEnergy   86633373105                       # Total energy per rank (pJ)
system.mem_ctrls.dram.rank0.averagePower   518.966477                       # Core power per rank (mW)
system.mem_ctrls.dram.rank0.totalIdleTime            0                       # Total Idle time Per DRAM Rank
system.mem_ctrls.dram.rank0.pwrStateTime::IDLE  76226206250                       # Time in different power states
system.mem_ctrls.dram.rank0.pwrStateTime::REF   5574140000                       # Time in different power states
system.mem_ctrls.dram.rank0.pwrStateTime::SREF            0                       # Time in different power states
system.mem_ctrls.dram.rank0.pwrStateTime::PRE_PDN            0                       # Time in different power states
system.mem_ctrls.dram.rank0.pwrStateTime::ACT  85134083750                       # Time in different power states
system.mem_ctrls.dram.rank0.pwrStateTime::ACT_PDN            0                       # Time in different power states
system.mem_ctrls.dram.rank1.actEnergy       844940460                       # Energy for activate commands per rank (pJ)
system.mem_ctrls.dram.rank1.preEnergy       449081325                       # Energy for precharge commands per rank (pJ)
system.mem_ctrls.dram.rank1.readEnergy     1017764160                       # Energy for read commands per rank (pJ)
system.mem_ctrls.dram.rank1.writeEnergy     518079780                       # Energy for write commands per rank (pJ)
system.mem_ctrls.dram.rank1.refreshEnergy 13177266960.000002                       # Energy for refresh commands per rank (pJ)
system.mem_ctrls.dram.rank1.actBackEnergy  40888570380                       # Energy for active background per rank (pJ)
system.mem_ctrls.dram.rank1.preBackEnergy  29670340800                       # Energy for precharge background per rank (pJ)
system.mem_ctrls.dram.rank1.actPowerDownEnergy            0                       # Energy for active power-down per rank (pJ)
system.mem_ctrls.dram.rank1.prePowerDownEnergy            0                       # Energy for precharge power-down per rank (pJ)
system.mem_ctrls.dram.rank1.selfRefreshEnergy            0                       # Energy for self refresh per rank (pJ)
system.mem_ctrls.dram.rank1.totalEnergy   86566043865                       # Total energy per rank (pJ)
system.mem_ctrls.dram.rank1.averagePower   518.563150                       # Core power per rank (mW)
system.mem_ctrls.dram.rank1.totalIdleTime            0                       # Total Idle time Per DRAM Rank
system.mem_ctrls.dram.rank1.pwrStateTime::IDLE  76713265750                       # Time in different power states
system.mem_ctrls.dram.rank1.pwrStateTime::REF   5574140000                       # Time in different power states
system.mem_ctrls.dram.rank1.pwrStateTime::SREF            0                       # Time in different power states
system.mem_ctrls.dram.rank1.pwrStateTime::PRE_PDN            0                       # Time in different power states
system.mem_ctrls.dram.rank1.pwrStateTime::ACT  84647024250                       # Time in different power states
system.mem_ctrls.dram.rank1.pwrStateTime::ACT_PDN            0                       # Time in different power states
system.mem_ctrls.power_state.pwrStateResidencyTicks::UNDEFINED 166934430000                       # Cumulative time (in ticks) in various power states
system.membus.trans_dist::ReadResp             110539                       # Transaction distribution
system.membus.trans_dist::WritebackDirty       199661                       # Transaction distribution
system.membus.trans_dist::CleanEvict            79102                       # Transaction distribution
system.membus.trans_dist::ReadExReq            176836                       # Transaction distribution
system.membus.trans_dist::ReadExResp           176835                       # Transaction distribution
system.membus.trans_dist::ReadSharedReq        110539                       # Transaction distribution
system.membus.pkt_count_system.l2.mem_side_port::system.mem_ctrls.port       853512                       # Packet count per connected requestor and responder (bytes)
system.membus.pkt_count::total                 853512                       # Packet count per connected requestor and responder (bytes)
system.membus.pkt_size_system.l2.mem_side_port::system.mem_ctrls.port     31170240                       # Cumulative packet size per connected requestor and responder (bytes)
system.membus.pkt_size::total                31170240                       # Cumulative packet size per connected requestor and responder (bytes)
system.membus.snoops                                0                       # Total snoops (count)
system.membus.snoopTraffic                          0                       # Total snoop traffic (bytes)
system.membus.snoop_fanout::samples            287375                       # Request fanout histogram
system.membus.snoop_fanout::mean                    0                       # Request fanout histogram
system.membus.snoop_fanout::stdev                   0                       # Request fanout histogram
system.membus.snoop_fanout::underflows              0      0.00%      0.00% # Request fanout histogram
system.membus.snoop_fanout::0                  287375    100.00%    100.00% # Request fanout histogram
system.membus.snoop_fanout::1                       0      0.00%    100.00% # Request fanout histogram
system.membus.snoop_fanout::overflows               0      0.00%    100.00% # Request fanout histogram
system.membus.snoop_fanout::min_value               0                       # Request fanout histogram
system.membus.snoop_fanout::max_value               0                       # Request fanout histogram
system.membus.snoop_fanout::total              287375                       # Request fanout histogram
system.membus.power_state.pwrStateResidencyTicks::UNDEFINED 166934430000                       # Cumulative time (in ticks) in various power states
system.membus.reqLayer0.occupancy          1364782000                       # Layer occupancy (ticks)
system.membus.reqLayer0.utilization               0.8                       # Layer utilization (%)
system.membus.respLayer1.occupancy         1564418000                       # Layer occupancy (ticks)
system.membus.respLayer1.utilization              0.9                       # Layer utilization (%)
system.tol2bus.trans_dist::ReadResp            457899                       # Transaction distribution
system.tol2bus.trans_dist::WritebackDirty       877494                       # Transaction distribution
system.tol2bus.trans_dist::WritebackClean          489                       # Transaction distribution
system.tol2bus.trans_dist::CleanEvict          188273                       # Transaction distribution
system.tol2bus.trans_dist::ReadExReq           321487                       # Transaction distribution
system.tol2bus.trans_dist::ReadExResp          321486                       # Transaction distribution
system.tol2bus.trans_dist::ReadCleanReq           875                       # Transaction distribution
system.tol2bus.trans_dist::ReadSharedReq       457024                       # Transaction distribution
system.tol2bus.pkt_count_system.cpu.icache.mem_side_port::system.l2.cpu_side_port         2239                       # Packet count per connected requestor and responder (bytes)
system.tol2bus.pkt_count_system.cpu.dcache.mem_side_port::system.l2.cpu_side_port      2334507                       # Packet count per connected requestor and responder (bytes)
system.tol2bus.pkt_count::total               2336746                       # Packet count per connected requestor and responder (bytes)
system.tol2bus.pkt_size_system.cpu.icache.mem_side_port::system.l2.cpu_side_port        87296                       # Cumulative packet size per connected requestor and responder (bytes)
system.tol2bus.pkt_size_system.cpu.dcache.mem_side_port::system.l2.cpu_side_port     93205952                       # Cumulative packet size per connected requestor and responder (bytes)
system.tol2bus.pkt_size::total               93293248                       # Cumulative packet size per connected requestor and responder (bytes)
system.tol2bus.snoops                          288281                       # Total snoops (count)
system.tol2bus.snoopTraffic                  12778304                       # Total snoop traffic (bytes)
system.tol2bus.snoop_fanout::samples          1067667                       # Request fanout histogram
system.tol2bus.snoop_fanout::mean            0.013967                       # Request fanout histogram
system.tol2bus.snoop_fanout::stdev           0.117513                       # Request fanout histogram
system.tol2bus.snoop_fanout::underflows             0      0.00%      0.00% # Request fanout histogram
system.tol2bus.snoop_fanout::0                1052775     98.61%     98.61% # Request fanout histogram
system.tol2bus.snoop_fanout::1                  14872      1.39%    100.00% # Request fanout histogram
system.tol2bus.snoop_fanout::2                     20      0.00%    100.00% # Request fanout histogram
system.tol2bus.snoop_fanout::overflows              0      0.00%    100.00% # Request fanout histogram
system.tol2bus.snoop_fanout::min_value              0                       # Request fanout histogram
system.tol2bus.snoop_fanout::max_value              2                       # Request fanout histogram
system.tol2bus.snoop_fanout::total            1067667                       # Request fanout histogram
system.tol2bus.power_state.pwrStateResidencyTicks::UNDEFINED 166934430000                       # Cumulative time (in ticks) in various power states
system.tol2bus.reqLayer0.occupancy         2914005000                       # Layer occupancy (ticks)
system.tol2bus.reqLayer0.utilization              1.7                       # Layer utilization (%)
system.tol2bus.respLayer0.occupancy           2625000                       # Layer occupancy (ticks)
system.tol2bus.respLayer0.utilization             0.0                       # Layer utilization (%)
system.tol2bus.respLayer1.occupancy        2335534995                       # Layer occupancy (ticks)
system.tol2bus.respLayer1.utilization             1.4                       # Layer utilization (%)
system.voltage_domain.voltage                       1                       # Voltage in Volts

---------- End Simulation Statistics   ----------
