
---------- Begin Simulation Statistics ----------
final_tick                               115536329000                       # Number of ticks from beginning of simulation (restored from checkpoints and never reset)
host_inst_rate                                 401365                       # Simulator instruction rate (inst/s)
host_mem_usage                                 661116                       # Number of bytes of host memory used
host_op_rate                                   439221                       # Simulator op (including micro ops) rate (op/s)
host_seconds                                   249.15                       # Real time elapsed on the host
host_tick_rate                              463722228                       # Simulator tick rate (ticks/s)
sim_freq                                 1000000000000                       # Frequency of simulated ticks
sim_insts                                   100000001                       # Number of instructions simulated
sim_ops                                     109431834                       # Number of ops (including micro ops) simulated
sim_seconds                                  0.115536                       # Number of seconds simulated
sim_ticks                                115536329000                       # Number of ticks simulated
system.cpu.committedInsts                   100000001                       # Number of instructions committed
system.cpu.committedOps                     109431834                       # Number of ops (including micro ops) committed
system.cpu.cpi                               1.155363                       # CPI: cycles per instruction
system.cpu.discardedOps                        729876                       # Number of ops (including micro ops) which were discarded before commit
system.cpu.idleCycles                         4639927                       # Total number of cycles that the object has spent stopped
system.cpu.ipc                               0.865529                       # IPC: instructions per cycle
system.cpu.numCycles                        115536329                       # number of cpu cycles simulated
system.cpu.numFetchSuspends                         0                       # Number of times Execute suspended instruction fetching
system.cpu.numWorkItemsCompleted                    0                       # number of work items this cpu completed
system.cpu.numWorkItemsStarted                      0                       # number of work items this cpu started
system.cpu.op_class_0::No_OpClass                   0      0.00%      0.00% # Class of committed instruction
system.cpu.op_class_0::IntAlu                72954902     66.67%     66.67% # Class of committed instruction
system.cpu.op_class_0::IntMult                 568365      0.52%     67.19% # Class of committed instruction
system.cpu.op_class_0::IntDiv                       0      0.00%     67.19% # Class of committed instruction
system.cpu.op_class_0::FloatAdd                     0      0.00%     67.19% # Class of committed instruction
system.cpu.op_class_0::FloatCmp                     0      0.00%     67.19% # Class of committed instruction
system.cpu.op_class_0::FloatCvt                     0      0.00%     67.19% # Class of committed instruction
system.cpu.op_class_0::FloatMult                    0      0.00%     67.19% # Class of committed instruction
system.cpu.op_class_0::FloatMultAcc                 0      0.00%     67.19% # Class of committed instruction
system.cpu.op_class_0::FloatDiv                     0      0.00%     67.19% # Class of committed instruction
system.cpu.op_class_0::FloatMisc                    0      0.00%     67.19% # Class of committed instruction
system.cpu.op_class_0::FloatSqrt                    0      0.00%     67.19% # Class of committed instruction
system.cpu.op_class_0::SimdAdd                 241244      0.22%     67.41% # Class of committed instruction
system.cpu.op_class_0::SimdAddAcc                   0      0.00%     67.41% # Class of committed instruction
system.cpu.op_class_0::SimdAlu                 154714      0.14%     67.55% # Class of committed instruction
system.cpu.op_class_0::SimdCmp                 120622      0.11%     67.66% # Class of committed instruction
system.cpu.op_class_0::SimdCvt                      0      0.00%     67.66% # Class of committed instruction
system.cpu.op_class_0::SimdMisc                 44543      0.04%     67.70% # Class of committed instruction
system.cpu.op_class_0::SimdMult                     0      0.00%     67.70% # Class of committed instruction
system.cpu.op_class_0::SimdMultAcc                  0      0.00%     67.70% # Class of committed instruction
system.cpu.op_class_0::SimdShift                    0      0.00%     67.70% # Class of committed instruction
system.cpu.op_class_0::SimdShiftAcc                 0      0.00%     67.70% # Class of committed instruction
system.cpu.op_class_0::SimdDiv                      0      0.00%     67.70% # Class of committed instruction
system.cpu.op_class_0::SimdSqrt                     0      0.00%     67.70% # Class of committed instruction
system.cpu.op_class_0::SimdFloatAdd                 0      0.00%     67.70% # Class of committed instruction
system.cpu.op_class_0::SimdFloatAlu                 0      0.00%     67.70% # Class of committed instruction
system.cpu.op_class_0::SimdFloatCmp                 0      0.00%     67.70% # Class of committed instruction
system.cpu.op_class_0::SimdFloatCvt                 0      0.00%     67.70% # Class of committed instruction
system.cpu.op_class_0::SimdFloatDiv                 0      0.00%     67.70% # Class of committed instruction
system.cpu.op_class_0::SimdFloatMisc           166460      0.15%     67.85% # Class of committed instruction
system.cpu.op_class_0::SimdFloatMult                0      0.00%     67.85% # Class of committed instruction
system.cpu.op_class_0::SimdFloatMultAcc             0      0.00%     67.85% # Class of committed instruction
system.cpu.op_class_0::SimdFloatSqrt                0      0.00%     67.85% # Class of committed instruction
system.cpu.op_class_0::SimdReduceAdd                0      0.00%     67.85% # Class of committed instruction
system.cpu.op_class_0::SimdReduceAlu                0      0.00%     67.85% # Class of committed instruction
system.cpu.op_class_0::SimdReduceCmp                0      0.00%     67.85% # Class of committed instruction
system.cpu.op_class_0::SimdFloatReduceAdd            0      0.00%     67.85% # Class of committed instruction
system.cpu.op_class_0::SimdFloatReduceCmp            0      0.00%     67.85% # Class of committed instruction
system.cpu.op_class_0::SimdAes                      0      0.00%     67.85% # Class of committed instruction
system.cpu.op_class_0::SimdAesMix                   0      0.00%     67.85% # Class of committed instruction
system.cpu.op_class_0::SimdSha1Hash                 0      0.00%     67.85% # Class of committed instruction
system.cpu.op_class_0::SimdSha1Hash2                0      0.00%     67.85% # Class of committed instruction
system.cpu.op_class_0::SimdSha256Hash               0      0.00%     67.85% # Class of committed instruction
system.cpu.op_class_0::SimdSha256Hash2              0      0.00%     67.85% # Class of committed instruction
system.cpu.op_class_0::SimdShaSigma2                0      0.00%     67.85% # Class of committed instruction
system.cpu.op_class_0::SimdShaSigma3                0      0.00%     67.85% # Class of committed instruction
system.cpu.op_class_0::SimdPredAlu                  0      0.00%     67.85% # Class of committed instruction
system.cpu.op_class_0::MemRead               20646335     18.87%     86.72% # Class of committed instruction
system.cpu.op_class_0::MemWrite              14534649     13.28%    100.00% # Class of committed instruction
system.cpu.op_class_0::FloatMemRead                 0      0.00%    100.00% # Class of committed instruction
system.cpu.op_class_0::FloatMemWrite                0      0.00%    100.00% # Class of committed instruction
system.cpu.op_class_0::IprAccess                    0      0.00%    100.00% # Class of committed instruction
system.cpu.op_class_0::InstPrefetch                 0      0.00%    100.00% # Class of committed instruction
system.cpu.op_class_0::total                109431834                       # Class of committed instruction
system.cpu.tickCycles                       110896402                       # Number of cycles that the object actually ticked
system.cpu.workload.numSyscalls                    86                       # Number of system calls
system.membus.snoop_filter.hit_multi_requests            0                       # Number of requests hitting in the snoop filter with multiple (>1) holders of the requested data.
system.membus.snoop_filter.hit_multi_snoops            0                       # Number of snoops hitting in the snoop filter with multiple (>1) holders of the requested data.
system.membus.snoop_filter.hit_single_requests        37702                       # Number of requests hitting in the snoop filter with a single holder of the requested data.
system.membus.snoop_filter.hit_single_snoops            0                       # Number of snoops hitting in the snoop filter with a single holder of the requested data.
system.membus.snoop_filter.tot_requests         84030                       # Total number of requests made to the snoop filter.
system.membus.snoop_filter.tot_snoops               0                       # Total number of snoops made to the snoop filter.
system.tol2bus.snoop_filter.hit_multi_requests         2522                       # Number of requests hitting in the snoop filter with multiple (>1) holders of the requested data.
system.tol2bus.snoop_filter.hit_multi_snoops            0                       # Number of snoops hitting in the snoop filter with multiple (>1) holders of the requested data.
system.tol2bus.snoop_filter.hit_single_requests       125278                       # Number of requests hitting in the snoop filter with a single holder of the requested data.
system.tol2bus.snoop_filter.hit_single_snoops          438                       # Number of snoops hitting in the snoop filter with a single holder of the requested data.
system.tol2bus.snoop_filter.tot_requests       251503                       # Total number of requests made to the snoop filter.
system.tol2bus.snoop_filter.tot_snoops            438                       # Total number of snoops made to the snoop filter.
system.clk_domain.clock                          1000                       # Clock period in ticks
system.cpu.branchPred.lookups                20634770                       # Number of BP lookups
system.cpu.branchPred.condPredicted          16527290                       # Number of conditional branches predicted
system.cpu.branchPred.condIncorrect            153920                       # Number of conditional branches incorrect
system.cpu.branchPred.BTBLookups              8837526                       # Number of BTB lookups
system.cpu.branchPred.BTBHits                 8746896                       # Number of BTB hits
system.cpu.branchPred.BTBHitPct             98.974487                       # BTB Hit Percentage
system.cpu.branchPred.RASUsed                 1050592                       # Number of times the RAS was used to get a target.
system.cpu.branchPred.RASIncorrect                312                       # Number of incorrect RAS predictions.
system.cpu.branchPred.indirectLookups          433995                       # Number of indirect predictor lookups.
system.cpu.branchPred.indirectHits             300036                       # Number of indirect target hits.
system.cpu.branchPred.indirectMisses           133959                       # Number of indirect misses.
system.cpu.branchPred.indirectMispredicted         1205                       # Number of mispredicted indirect branches.
system.cpu.dcache.demand_hits::.cpu.data     35580156                       # number of demand (read+write) hits
system.cpu.dcache.demand_hits::total         35580156                       # number of demand (read+write) hits
system.cpu.dcache.overall_hits::.cpu.data     35583439                       # number of overall hits
system.cpu.dcache.overall_hits::total        35583439                       # number of overall hits
system.cpu.dcache.demand_misses::.cpu.data       156990                       # number of demand (read+write) misses
system.cpu.dcache.demand_misses::total         156990                       # number of demand (read+write) misses
system.cpu.dcache.overall_misses::.cpu.data       157080                       # number of overall misses
system.cpu.dcache.overall_misses::total        157080                       # number of overall misses
system.cpu.dcache.demand_miss_latency::.cpu.data   8839128000                       # number of demand (read+write) miss cycles
system.cpu.dcache.demand_miss_latency::total   8839128000                       # number of demand (read+write) miss cycles
system.cpu.dcache.overall_miss_latency::.cpu.data   8839128000                       # number of overall miss cycles
system.cpu.dcache.overall_miss_latency::total   8839128000                       # number of overall miss cycles
system.cpu.dcache.demand_accesses::.cpu.data     35737146                       # number of demand (read+write) accesses
system.cpu.dcache.demand_accesses::total     35737146                       # number of demand (read+write) accesses
system.cpu.dcache.overall_accesses::.cpu.data     35740519                       # number of overall (read+write) accesses
system.cpu.dcache.overall_accesses::total     35740519                       # number of overall (read+write) accesses
system.cpu.dcache.demand_miss_rate::.cpu.data     0.004393                       # miss rate for demand accesses
system.cpu.dcache.demand_miss_rate::total     0.004393                       # miss rate for demand accesses
system.cpu.dcache.overall_miss_rate::.cpu.data     0.004395                       # miss rate for overall accesses
system.cpu.dcache.overall_miss_rate::total     0.004395                       # miss rate for overall accesses
system.cpu.dcache.demand_avg_miss_latency::.cpu.data 56303.764571                       # average overall miss latency
system.cpu.dcache.demand_avg_miss_latency::total 56303.764571                       # average overall miss latency
system.cpu.dcache.overall_avg_miss_latency::.cpu.data 56271.504966                       # average overall miss latency
system.cpu.dcache.overall_avg_miss_latency::total 56271.504966                       # average overall miss latency
system.cpu.dcache.blocked_cycles::no_mshrs            0                       # number of cycles access was blocked
system.cpu.dcache.blocked_cycles::no_targets            0                       # number of cycles access was blocked
system.cpu.dcache.blocked::no_mshrs                 0                       # number of cycles access was blocked
system.cpu.dcache.blocked::no_targets               0                       # number of cycles access was blocked
system.cpu.dcache.avg_blocked_cycles::no_mshrs          nan                       # average number of cycles each access was blocked
system.cpu.dcache.avg_blocked_cycles::no_targets          nan                       # average number of cycles each access was blocked
system.cpu.dcache.writebacks::.writebacks        72343                       # number of writebacks
system.cpu.dcache.writebacks::total             72343                       # number of writebacks
system.cpu.dcache.demand_mshr_hits::.cpu.data        32048                       # number of demand (read+write) MSHR hits
system.cpu.dcache.demand_mshr_hits::total        32048                       # number of demand (read+write) MSHR hits
system.cpu.dcache.overall_mshr_hits::.cpu.data        32048                       # number of overall MSHR hits
system.cpu.dcache.overall_mshr_hits::total        32048                       # number of overall MSHR hits
system.cpu.dcache.demand_mshr_misses::.cpu.data       124942                       # number of demand (read+write) MSHR misses
system.cpu.dcache.demand_mshr_misses::total       124942                       # number of demand (read+write) MSHR misses
system.cpu.dcache.overall_mshr_misses::.cpu.data       125026                       # number of overall MSHR misses
system.cpu.dcache.overall_mshr_misses::total       125026                       # number of overall MSHR misses
system.cpu.dcache.demand_mshr_miss_latency::.cpu.data   6957368000                       # number of demand (read+write) MSHR miss cycles
system.cpu.dcache.demand_mshr_miss_latency::total   6957368000                       # number of demand (read+write) MSHR miss cycles
system.cpu.dcache.overall_mshr_miss_latency::.cpu.data   6960892000                       # number of overall MSHR miss cycles
system.cpu.dcache.overall_mshr_miss_latency::total   6960892000                       # number of overall MSHR miss cycles
system.cpu.dcache.demand_mshr_miss_rate::.cpu.data     0.003496                       # mshr miss rate for demand accesses
system.cpu.dcache.demand_mshr_miss_rate::total     0.003496                       # mshr miss rate for demand accesses
system.cpu.dcache.overall_mshr_miss_rate::.cpu.data     0.003498                       # mshr miss rate for overall accesses
system.cpu.dcache.overall_mshr_miss_rate::total     0.003498                       # mshr miss rate for overall accesses
system.cpu.dcache.demand_avg_mshr_miss_latency::.cpu.data 55684.781739                       # average overall mshr miss latency
system.cpu.dcache.demand_avg_mshr_miss_latency::total 55684.781739                       # average overall mshr miss latency
system.cpu.dcache.overall_avg_mshr_miss_latency::.cpu.data 55675.555484                       # average overall mshr miss latency
system.cpu.dcache.overall_avg_mshr_miss_latency::total 55675.555484                       # average overall mshr miss latency
system.cpu.dcache.replacements                 124516                       # number of replacements
system.cpu.dcache.ReadReq_hits::.cpu.data     21396542                       # number of ReadReq hits
system.cpu.dcache.ReadReq_hits::total        21396542                       # number of ReadReq hits
system.cpu.dcache.ReadReq_misses::.cpu.data        86009                       # number of ReadReq misses
system.cpu.dcache.ReadReq_misses::total         86009                       # number of ReadReq misses
system.cpu.dcache.ReadReq_miss_latency::.cpu.data   2929897000                       # number of ReadReq miss cycles
system.cpu.dcache.ReadReq_miss_latency::total   2929897000                       # number of ReadReq miss cycles
system.cpu.dcache.ReadReq_accesses::.cpu.data     21482551                       # number of ReadReq accesses(hits+misses)
system.cpu.dcache.ReadReq_accesses::total     21482551                       # number of ReadReq accesses(hits+misses)
system.cpu.dcache.ReadReq_miss_rate::.cpu.data     0.004004                       # miss rate for ReadReq accesses
system.cpu.dcache.ReadReq_miss_rate::total     0.004004                       # miss rate for ReadReq accesses
system.cpu.dcache.ReadReq_avg_miss_latency::.cpu.data 34065.004825                       # average ReadReq miss latency
system.cpu.dcache.ReadReq_avg_miss_latency::total 34065.004825                       # average ReadReq miss latency
system.cpu.dcache.ReadReq_mshr_hits::.cpu.data         8864                       # number of ReadReq MSHR hits
system.cpu.dcache.ReadReq_mshr_hits::total         8864                       # number of ReadReq MSHR hits
system.cpu.dcache.ReadReq_mshr_misses::.cpu.data        77145                       # number of ReadReq MSHR misses
system.cpu.dcache.ReadReq_mshr_misses::total        77145                       # number of ReadReq MSHR misses
system.cpu.dcache.ReadReq_mshr_miss_latency::.cpu.data   2512431000                       # number of ReadReq MSHR miss cycles
system.cpu.dcache.ReadReq_mshr_miss_latency::total   2512431000                       # number of ReadReq MSHR miss cycles
system.cpu.dcache.ReadReq_mshr_miss_rate::.cpu.data     0.003591                       # mshr miss rate for ReadReq accesses
system.cpu.dcache.ReadReq_mshr_miss_rate::total     0.003591                       # mshr miss rate for ReadReq accesses
system.cpu.dcache.ReadReq_avg_mshr_miss_latency::.cpu.data 32567.645343                       # average ReadReq mshr miss latency
system.cpu.dcache.ReadReq_avg_mshr_miss_latency::total 32567.645343                       # average ReadReq mshr miss latency
system.cpu.dcache.WriteReq_hits::.cpu.data     14183614                       # number of WriteReq hits
system.cpu.dcache.WriteReq_hits::total       14183614                       # number of WriteReq hits
system.cpu.dcache.WriteReq_misses::.cpu.data        70981                       # number of WriteReq misses
system.cpu.dcache.WriteReq_misses::total        70981                       # number of WriteReq misses
system.cpu.dcache.WriteReq_miss_latency::.cpu.data   5909231000                       # number of WriteReq miss cycles
system.cpu.dcache.WriteReq_miss_latency::total   5909231000                       # number of WriteReq miss cycles
system.cpu.dcache.WriteReq_accesses::.cpu.data     14254595                       # number of WriteReq accesses(hits+misses)
system.cpu.dcache.WriteReq_accesses::total     14254595                       # number of WriteReq accesses(hits+misses)
system.cpu.dcache.WriteReq_miss_rate::.cpu.data     0.004980                       # miss rate for WriteReq accesses
system.cpu.dcache.WriteReq_miss_rate::total     0.004980                       # miss rate for WriteReq accesses
system.cpu.dcache.WriteReq_avg_miss_latency::.cpu.data 83250.884039                       # average WriteReq miss latency
system.cpu.dcache.WriteReq_avg_miss_latency::total 83250.884039                       # average WriteReq miss latency
system.cpu.dcache.WriteReq_mshr_hits::.cpu.data        23184                       # number of WriteReq MSHR hits
system.cpu.dcache.WriteReq_mshr_hits::total        23184                       # number of WriteReq MSHR hits
system.cpu.dcache.WriteReq_mshr_misses::.cpu.data        47797                       # number of WriteReq MSHR misses
system.cpu.dcache.WriteReq_mshr_misses::total        47797                       # number of WriteReq MSHR misses
system.cpu.dcache.WriteReq_mshr_miss_latency::.cpu.data   4444937000                       # number of WriteReq MSHR miss cycles
system.cpu.dcache.WriteReq_mshr_miss_latency::total   4444937000                       # number of WriteReq MSHR miss cycles
system.cpu.dcache.WriteReq_mshr_miss_rate::.cpu.data     0.003353                       # mshr miss rate for WriteReq accesses
system.cpu.dcache.WriteReq_mshr_miss_rate::total     0.003353                       # mshr miss rate for WriteReq accesses
system.cpu.dcache.WriteReq_avg_mshr_miss_latency::.cpu.data 92996.150386                       # average WriteReq mshr miss latency
system.cpu.dcache.WriteReq_avg_mshr_miss_latency::total 92996.150386                       # average WriteReq mshr miss latency
system.cpu.dcache.SoftPFReq_hits::.cpu.data         3283                       # number of SoftPFReq hits
system.cpu.dcache.SoftPFReq_hits::total          3283                       # number of SoftPFReq hits
system.cpu.dcache.SoftPFReq_misses::.cpu.data           90                       # number of SoftPFReq misses
system.cpu.dcache.SoftPFReq_misses::total           90                       # number of SoftPFReq misses
system.cpu.dcache.SoftPFReq_accesses::.cpu.data         3373                       # number of SoftPFReq accesses(hits+misses)
system.cpu.dcache.SoftPFReq_accesses::total         3373                       # number of SoftPFReq accesses(hits+misses)
system.cpu.dcache.SoftPFReq_miss_rate::.cpu.data     0.026682                       # miss rate for SoftPFReq accesses
system.cpu.dcache.SoftPFReq_miss_rate::total     0.026682                       # miss rate for SoftPFReq accesses
system.cpu.dcache.SoftPFReq_mshr_misses::.cpu.data           84                       # number of SoftPFReq MSHR misses
system.cpu.dcache.SoftPFReq_mshr_misses::total           84                       # number of SoftPFReq MSHR misses
system.cpu.dcache.SoftPFReq_mshr_miss_latency::.cpu.data      3524000                       # number of SoftPFReq MSHR miss cycles
system.cpu.dcache.SoftPFReq_mshr_miss_latency::total      3524000                       # number of SoftPFReq MSHR miss cycles
system.cpu.dcache.SoftPFReq_mshr_miss_rate::.cpu.data     0.024904                       # mshr miss rate for SoftPFReq accesses
system.cpu.dcache.SoftPFReq_mshr_miss_rate::total     0.024904                       # mshr miss rate for SoftPFReq accesses
system.cpu.dcache.SoftPFReq_avg_mshr_miss_latency::.cpu.data 41952.380952                       # average SoftPFReq mshr miss latency
system.cpu.dcache.SoftPFReq_avg_mshr_miss_latency::total 41952.380952                       # average SoftPFReq mshr miss latency
system.cpu.dcache.LoadLockedReq_hits::.cpu.data        89079                       # number of LoadLockedReq hits
system.cpu.dcache.LoadLockedReq_hits::total        89079                       # number of LoadLockedReq hits
system.cpu.dcache.LoadLockedReq_misses::.cpu.data            3                       # number of LoadLockedReq misses
system.cpu.dcache.LoadLockedReq_misses::total            3                       # number of LoadLockedReq misses
system.cpu.dcache.LoadLockedReq_miss_latency::.cpu.data       134000                       # number of LoadLockedReq miss cycles
system.cpu.dcache.LoadLockedReq_miss_latency::total       134000                       # number of LoadLockedReq miss cycles
system.cpu.dcache.LoadLockedReq_accesses::.cpu.data        89082                       # number of LoadLockedReq accesses(hits+misses)
system.cpu.dcache.LoadLockedReq_accesses::total        89082                       # number of LoadLockedReq accesses(hits+misses)
system.cpu.dcache.LoadLockedReq_miss_rate::.cpu.data     0.000034                       # miss rate for LoadLockedReq accesses
system.cpu.dcache.LoadLockedReq_miss_rate::total     0.000034                       # miss rate for LoadLockedReq accesses
system.cpu.dcache.LoadLockedReq_avg_miss_latency::.cpu.data 44666.666667                       # average LoadLockedReq miss latency
system.cpu.dcache.LoadLockedReq_avg_miss_latency::total 44666.666667                       # average LoadLockedReq miss latency
system.cpu.dcache.LoadLockedReq_mshr_misses::.cpu.data            3                       # number of LoadLockedReq MSHR misses
system.cpu.dcache.LoadLockedReq_mshr_misses::total            3                       # number of LoadLockedReq MSHR misses
system.cpu.dcache.LoadLockedReq_mshr_miss_latency::.cpu.data       128000                       # number of LoadLockedReq MSHR miss cycles
system.cpu.dcache.LoadLockedReq_mshr_miss_latency::total       128000                       # number of LoadLockedReq MSHR miss cycles
system.cpu.dcache.LoadLockedReq_mshr_miss_rate::.cpu.data     0.000034                       # mshr miss rate for LoadLockedReq accesses
system.cpu.dcache.LoadLockedReq_mshr_miss_rate::total     0.000034                       # mshr miss rate for LoadLockedReq accesses
system.cpu.dcache.LoadLockedReq_avg_mshr_miss_latency::.cpu.data 42666.666667                       # average LoadLockedReq mshr miss latency
system.cpu.dcache.LoadLockedReq_avg_mshr_miss_latency::total 42666.666667                       # average LoadLockedReq mshr miss latency
system.cpu.dcache.StoreCondReq_hits::.cpu.data        89080                       # number of StoreCondReq hits
system.cpu.dcache.StoreCondReq_hits::total        89080                       # number of StoreCondReq hits
system.cpu.dcache.StoreCondReq_accesses::.cpu.data        89080                       # number of StoreCondReq accesses(hits+misses)
system.cpu.dcache.StoreCondReq_accesses::total        89080                       # number of StoreCondReq accesses(hits+misses)
system.cpu.dcache.power_state.pwrStateResidencyTicks::UNDEFINED 115536329000                       # Cumulative time (in ticks) in various power states
system.cpu.dcache.tags.tagsinuse           511.083613                       # Cycle average of tags in use
system.cpu.dcache.tags.total_refs            35886626                       # Total number of references to valid blocks.
system.cpu.dcache.tags.sampled_refs            125028                       # Sample count of references to valid blocks.
system.cpu.dcache.tags.avg_refs            287.028714                       # Average number of references to valid blocks.
system.cpu.dcache.tags.warmup_cycle            240000                       # Cycle when the warmup percentage was hit.
system.cpu.dcache.tags.occ_blocks::.cpu.data   511.083613                       # Average occupied blocks per requestor
system.cpu.dcache.tags.occ_percent::.cpu.data     0.998210                       # Average percentage of cache occupancy
system.cpu.dcache.tags.occ_percent::total     0.998210                       # Average percentage of cache occupancy
system.cpu.dcache.tags.occ_task_id_blocks::1024          512                       # Occupied blocks per task id
system.cpu.dcache.tags.age_task_id_blocks_1024::0            3                       # Occupied blocks per task id
system.cpu.dcache.tags.age_task_id_blocks_1024::1           32                       # Occupied blocks per task id
system.cpu.dcache.tags.age_task_id_blocks_1024::2          250                       # Occupied blocks per task id
system.cpu.dcache.tags.age_task_id_blocks_1024::3          227                       # Occupied blocks per task id
system.cpu.dcache.tags.occ_task_id_percent::1024            1                       # Percentage of cache occupancy per task id
system.cpu.dcache.tags.tag_accesses          36043709                       # Number of tag accesses
system.cpu.dcache.tags.data_accesses         36043709                       # Number of data accesses
system.cpu.dcache.tags.power_state.pwrStateResidencyTicks::UNDEFINED 115536329000                       # Cumulative time (in ticks) in various power states
system.cpu.dtb.instHits                             0                       # ITB inst hits
system.cpu.dtb.instMisses                           0                       # ITB inst misses
system.cpu.dtb.readHits                             0                       # DTB read hits
system.cpu.dtb.readMisses                           0                       # DTB read misses
system.cpu.dtb.writeHits                            0                       # DTB write hits
system.cpu.dtb.writeMisses                          0                       # DTB write misses
system.cpu.dtb.inserts                              0                       # Number of times an entry is inserted into the TLB
system.cpu.dtb.flushTlb                             0                       # Number of times complete TLB was flushed
system.cpu.dtb.flushTlbMva                          0                       # Number of times TLB was flushed by MVA
system.cpu.dtb.flushTlbMvaAsid                      0                       # Number of times TLB was flushed by MVA & ASID
system.cpu.dtb.flushTlbAsid                         0                       # Number of times TLB was flushed by ASID
system.cpu.dtb.flushedEntries                       0                       # Number of entries that have been flushed from TLB
system.cpu.dtb.alignFaults                          0                       # Number of TLB faults due to alignment restrictions
system.cpu.dtb.prefetchFaults                       0                       # Number of TLB faults due to prefetch
system.cpu.dtb.domainFaults                         0                       # Number of TLB faults due to domain restrictions
system.cpu.dtb.permsFaults                          0                       # Number of TLB faults due to permissions restrictions
system.cpu.dtb.readAccesses                         0                       # DTB read accesses
system.cpu.dtb.writeAccesses                        0                       # DTB write accesses
system.cpu.dtb.instAccesses                         0                       # ITB inst accesses
system.cpu.dtb.hits                                 0                       # Total TLB (inst and data) hits
system.cpu.dtb.misses                               0                       # Total TLB (inst and data) misses
system.cpu.dtb.accesses                             0                       # Total TLB (inst and data) accesses
system.cpu.dtb.stage2_mmu.stage2_tlb.instHits            0                       # ITB inst hits
system.cpu.dtb.stage2_mmu.stage2_tlb.instMisses            0                       # ITB inst misses
system.cpu.dtb.stage2_mmu.stage2_tlb.readHits            0                       # DTB read hits
system.cpu.dtb.stage2_mmu.stage2_tlb.readMisses            0                       # DTB read misses
system.cpu.dtb.stage2_mmu.stage2_tlb.writeHits            0                       # DTB write hits
system.cpu.dtb.stage2_mmu.stage2_tlb.writeMisses            0                       # DTB write misses
system.cpu.dtb.stage2_mmu.stage2_tlb.inserts            0                       # Number of times an entry is inserted into the TLB
system.cpu.dtb.stage2_mmu.stage2_tlb.flushTlb            0                       # Number of times complete TLB was flushed
system.cpu.dtb.stage2_mmu.stage2_tlb.flushTlbMva            0                       # Number of times TLB was flushed by MVA
system.cpu.dtb.stage2_mmu.stage2_tlb.flushTlbMvaAsid            0                       # Number of times TLB was flushed by MVA & ASID
system.cpu.dtb.stage2_mmu.stage2_tlb.flushTlbAsid            0                       # Number of times TLB was flushed by ASID
system.cpu.dtb.stage2_mmu.stage2_tlb.flushedEntries            0                       # Number of entries that have been flushed from TLB
system.cpu.dtb.stage2_mmu.stage2_tlb.alignFaults            0                       # Number of TLB faults due to alignment restrictions
system.cpu.dtb.stage2_mmu.stage2_tlb.prefetchFaults            0                       # Number of TLB faults due to prefetch
system.cpu.dtb.stage2_mmu.stage2_tlb.domainFaults            0                       # Number of TLB faults due to domain restrictions
system.cpu.dtb.stage2_mmu.stage2_tlb.permsFaults            0                       # Number of TLB faults due to permissions restrictions
system.cpu.dtb.stage2_mmu.stage2_tlb.readAccesses            0                       # DTB read accesses
system.cpu.dtb.stage2_mmu.stage2_tlb.writeAccesses            0                       # DTB write accesses
system.cpu.dtb.stage2_mmu.stage2_tlb.instAccesses            0                       # ITB inst accesses
system.cpu.dtb.stage2_mmu.stage2_tlb.hits            0                       # Total TLB (inst and data) hits
system.cpu.dtb.stage2_mmu.stage2_tlb.misses            0                       # Total TLB (inst and data) misses
system.cpu.dtb.stage2_mmu.stage2_tlb.accesses            0                       # Total TLB (inst and data) accesses
system.cpu.dtb.stage2_mmu.stage2_tlb.walker.walks            0                       # Table walker walks requested
system.cpu.dtb.stage2_mmu.stage2_tlb.walker.requestOrigin_Requested::Data            0                       # Table walker requests started/completed, data/inst
system.cpu.dtb.stage2_mmu.stage2_tlb.walker.requestOrigin_Requested::Inst            0                       # Table walker requests started/completed, data/inst
system.cpu.dtb.stage2_mmu.stage2_tlb.walker.requestOrigin_Requested::total            0                       # Table walker requests started/completed, data/inst
system.cpu.dtb.stage2_mmu.stage2_tlb.walker.requestOrigin_Completed::Data            0                       # Table walker requests started/completed, data/inst
system.cpu.dtb.stage2_mmu.stage2_tlb.walker.requestOrigin_Completed::Inst            0                       # Table walker requests started/completed, data/inst
system.cpu.dtb.stage2_mmu.stage2_tlb.walker.requestOrigin_Completed::total            0                       # Table walker requests started/completed, data/inst
system.cpu.dtb.stage2_mmu.stage2_tlb.walker.requestOrigin::total            0                       # Table walker requests started/completed, data/inst
system.cpu.dtb.stage2_mmu.stage2_tlb.walker.power_state.pwrStateResidencyTicks::UNDEFINED 115536329000                       # Cumulative time (in ticks) in various power states
system.cpu.dtb.walker.walks                         0                       # Table walker walks requested
system.cpu.dtb.walker.requestOrigin_Requested::Data            0                       # Table walker requests started/completed, data/inst
system.cpu.dtb.walker.requestOrigin_Requested::Inst            0                       # Table walker requests started/completed, data/inst
system.cpu.dtb.walker.requestOrigin_Requested::total            0                       # Table walker requests started/completed, data/inst
system.cpu.dtb.walker.requestOrigin_Completed::Data            0                       # Table walker requests started/completed, data/inst
system.cpu.dtb.walker.requestOrigin_Completed::Inst            0                       # Table walker requests started/completed, data/inst
system.cpu.dtb.walker.requestOrigin_Completed::total            0                       # Table walker requests started/completed, data/inst
system.cpu.dtb.walker.requestOrigin::total            0                       # Table walker requests started/completed, data/inst
system.cpu.dtb.walker.power_state.pwrStateResidencyTicks::UNDEFINED 115536329000                       # Cumulative time (in ticks) in various power states
system.cpu.fetch2.intInstructions            49922381                       # Number of integer instructions successfully decoded
system.cpu.fetch2.fpInstructions                    0                       # Number of floating point instructions successfully decoded
system.cpu.fetch2.vecInstructions                   0                       # Number of SIMD instructions successfully decoded
system.cpu.fetch2.loadInstructions           17208402                       # Number of memory load instructions successfully decoded
system.cpu.fetch2.storeInstructions          10039477                       # Number of memory store instructions successfully decoded
system.cpu.fetch2.amoInstructions                   0                       # Number of memory atomic instructions successfully decoded
system.cpu.icache.demand_hits::.cpu.inst     28668129                       # number of demand (read+write) hits
system.cpu.icache.demand_hits::total         28668129                       # number of demand (read+write) hits
system.cpu.icache.overall_hits::.cpu.inst     28668129                       # number of overall hits
system.cpu.icache.overall_hits::total        28668129                       # number of overall hits
system.cpu.icache.demand_misses::.cpu.inst         1200                       # number of demand (read+write) misses
system.cpu.icache.demand_misses::total           1200                       # number of demand (read+write) misses
system.cpu.icache.overall_misses::.cpu.inst         1200                       # number of overall misses
system.cpu.icache.overall_misses::total          1200                       # number of overall misses
system.cpu.icache.demand_miss_latency::.cpu.inst     70062000                       # number of demand (read+write) miss cycles
system.cpu.icache.demand_miss_latency::total     70062000                       # number of demand (read+write) miss cycles
system.cpu.icache.overall_miss_latency::.cpu.inst     70062000                       # number of overall miss cycles
system.cpu.icache.overall_miss_latency::total     70062000                       # number of overall miss cycles
system.cpu.icache.demand_accesses::.cpu.inst     28669329                       # number of demand (read+write) accesses
system.cpu.icache.demand_accesses::total     28669329                       # number of demand (read+write) accesses
system.cpu.icache.overall_accesses::.cpu.inst     28669329                       # number of overall (read+write) accesses
system.cpu.icache.overall_accesses::total     28669329                       # number of overall (read+write) accesses
system.cpu.icache.demand_miss_rate::.cpu.inst     0.000042                       # miss rate for demand accesses
system.cpu.icache.demand_miss_rate::total     0.000042                       # miss rate for demand accesses
system.cpu.icache.overall_miss_rate::.cpu.inst     0.000042                       # miss rate for overall accesses
system.cpu.icache.overall_miss_rate::total     0.000042                       # miss rate for overall accesses
system.cpu.icache.demand_avg_miss_latency::.cpu.inst        58385                       # average overall miss latency
system.cpu.icache.demand_avg_miss_latency::total        58385                       # average overall miss latency
system.cpu.icache.overall_avg_miss_latency::.cpu.inst        58385                       # average overall miss latency
system.cpu.icache.overall_avg_miss_latency::total        58385                       # average overall miss latency
system.cpu.icache.blocked_cycles::no_mshrs            0                       # number of cycles access was blocked
system.cpu.icache.blocked_cycles::no_targets            0                       # number of cycles access was blocked
system.cpu.icache.blocked::no_mshrs                 0                       # number of cycles access was blocked
system.cpu.icache.blocked::no_targets               0                       # number of cycles access was blocked
system.cpu.icache.avg_blocked_cycles::no_mshrs          nan                       # average number of cycles each access was blocked
system.cpu.icache.avg_blocked_cycles::no_targets          nan                       # average number of cycles each access was blocked
system.cpu.icache.writebacks::.writebacks          758                       # number of writebacks
system.cpu.icache.writebacks::total               758                       # number of writebacks
system.cpu.icache.demand_mshr_misses::.cpu.inst         1200                       # number of demand (read+write) MSHR misses
system.cpu.icache.demand_mshr_misses::total         1200                       # number of demand (read+write) MSHR misses
system.cpu.icache.overall_mshr_misses::.cpu.inst         1200                       # number of overall MSHR misses
system.cpu.icache.overall_mshr_misses::total         1200                       # number of overall MSHR misses
system.cpu.icache.demand_mshr_miss_latency::.cpu.inst     67662000                       # number of demand (read+write) MSHR miss cycles
system.cpu.icache.demand_mshr_miss_latency::total     67662000                       # number of demand (read+write) MSHR miss cycles
system.cpu.icache.overall_mshr_miss_latency::.cpu.inst     67662000                       # number of overall MSHR miss cycles
system.cpu.icache.overall_mshr_miss_latency::total     67662000                       # number of overall MSHR miss cycles
system.cpu.icache.demand_mshr_miss_rate::.cpu.inst     0.000042                       # mshr miss rate for demand accesses
system.cpu.icache.demand_mshr_miss_rate::total     0.000042                       # mshr miss rate for demand accesses
system.cpu.icache.overall_mshr_miss_rate::.cpu.inst     0.000042                       # mshr miss rate for overall accesses
system.cpu.icache.overall_mshr_miss_rate::total     0.000042                       # mshr miss rate for overall accesses
system.cpu.icache.demand_avg_mshr_miss_latency::.cpu.inst        56385                       # average overall mshr miss latency
system.cpu.icache.demand_avg_mshr_miss_latency::total        56385                       # average overall mshr miss latency
system.cpu.icache.overall_avg_mshr_miss_latency::.cpu.inst        56385                       # average overall mshr miss latency
system.cpu.icache.overall_avg_mshr_miss_latency::total        56385                       # average overall mshr miss latency
system.cpu.icache.replacements                    758                       # number of replacements
system.cpu.icache.ReadReq_hits::.cpu.inst     28668129                       # number of ReadReq hits
system.cpu.icache.ReadReq_hits::total        28668129                       # number of ReadReq hits
system.cpu.icache.ReadReq_misses::.cpu.inst         1200                       # number of ReadReq misses
system.cpu.icache.ReadReq_misses::total          1200                       # number of ReadReq misses
system.cpu.icache.ReadReq_miss_latency::.cpu.inst     70062000                       # number of ReadReq miss cycles
system.cpu.icache.ReadReq_miss_latency::total     70062000                       # number of ReadReq miss cycles
system.cpu.icache.ReadReq_accesses::.cpu.inst     28669329                       # number of ReadReq accesses(hits+misses)
system.cpu.icache.ReadReq_accesses::total     28669329                       # number of ReadReq accesses(hits+misses)
system.cpu.icache.ReadReq_miss_rate::.cpu.inst     0.000042                       # miss rate for ReadReq accesses
system.cpu.icache.ReadReq_miss_rate::total     0.000042                       # miss rate for ReadReq accesses
system.cpu.icache.ReadReq_avg_miss_latency::.cpu.inst        58385                       # average ReadReq miss latency
system.cpu.icache.ReadReq_avg_miss_latency::total        58385                       # average ReadReq miss latency
system.cpu.icache.ReadReq_mshr_misses::.cpu.inst         1200                       # number of ReadReq MSHR misses
system.cpu.icache.ReadReq_mshr_misses::total         1200                       # number of ReadReq MSHR misses
system.cpu.icache.ReadReq_mshr_miss_latency::.cpu.inst     67662000                       # number of ReadReq MSHR miss cycles
system.cpu.icache.ReadReq_mshr_miss_latency::total     67662000                       # number of ReadReq MSHR miss cycles
system.cpu.icache.ReadReq_mshr_miss_rate::.cpu.inst     0.000042                       # mshr miss rate for ReadReq accesses
system.cpu.icache.ReadReq_mshr_miss_rate::total     0.000042                       # mshr miss rate for ReadReq accesses
system.cpu.icache.ReadReq_avg_mshr_miss_latency::.cpu.inst        56385                       # average ReadReq mshr miss latency
system.cpu.icache.ReadReq_avg_mshr_miss_latency::total        56385                       # average ReadReq mshr miss latency
system.cpu.icache.power_state.pwrStateResidencyTicks::UNDEFINED 115536329000                       # Cumulative time (in ticks) in various power states
system.cpu.icache.tags.tagsinuse           441.579805                       # Cycle average of tags in use
system.cpu.icache.tags.total_refs            28669329                       # Total number of references to valid blocks.
system.cpu.icache.tags.sampled_refs              1200                       # Sample count of references to valid blocks.
system.cpu.icache.tags.avg_refs          23891.107500                       # Average number of references to valid blocks.
system.cpu.icache.tags.warmup_cycle            108000                       # Cycle when the warmup percentage was hit.
system.cpu.icache.tags.occ_blocks::.cpu.inst   441.579805                       # Average occupied blocks per requestor
system.cpu.icache.tags.occ_percent::.cpu.inst     0.431230                       # Average percentage of cache occupancy
system.cpu.icache.tags.occ_percent::total     0.431230                       # Average percentage of cache occupancy
system.cpu.icache.tags.occ_task_id_blocks::1024          442                       # Occupied blocks per task id
system.cpu.icache.tags.age_task_id_blocks_1024::3            5                       # Occupied blocks per task id
system.cpu.icache.tags.age_task_id_blocks_1024::4          437                       # Occupied blocks per task id
system.cpu.icache.tags.occ_task_id_percent::1024     0.431641                       # Percentage of cache occupancy per task id
system.cpu.icache.tags.tag_accesses          28670529                       # Number of tag accesses
system.cpu.icache.tags.data_accesses         28670529                       # Number of data accesses
system.cpu.icache.tags.power_state.pwrStateResidencyTicks::UNDEFINED 115536329000                       # Cumulative time (in ticks) in various power states
system.cpu.itb.instHits                             0                       # ITB inst hits
system.cpu.itb.instMisses                           0                       # ITB inst misses
system.cpu.itb.readHits                             0                       # DTB read hits
system.cpu.itb.readMisses                           0                       # DTB read misses
system.cpu.itb.writeHits                            0                       # DTB write hits
system.cpu.itb.writeMisses                          0                       # DTB write misses
system.cpu.itb.inserts                              0                       # Number of times an entry is inserted into the TLB
system.cpu.itb.flushTlb                             0                       # Number of times complete TLB was flushed
system.cpu.itb.flushTlbMva                          0                       # Number of times TLB was flushed by MVA
system.cpu.itb.flushTlbMvaAsid                      0                       # Number of times TLB was flushed by MVA & ASID
system.cpu.itb.flushTlbAsid                         0                       # Number of times TLB was flushed by ASID
system.cpu.itb.flushedEntries                       0                       # Number of entries that have been flushed from TLB
system.cpu.itb.alignFaults                          0                       # Number of TLB faults due to alignment restrictions
system.cpu.itb.prefetchFaults                       0                       # Number of TLB faults due to prefetch
system.cpu.itb.domainFaults                         0                       # Number of TLB faults due to domain restrictions
system.cpu.itb.permsFaults                          0                       # Number of TLB faults due to permissions restrictions
system.cpu.itb.readAccesses                         0                       # DTB read accesses
system.cpu.itb.writeAccesses                        0                       # DTB write accesses
system.cpu.itb.instAccesses                         0                       # ITB inst accesses
system.cpu.itb.hits                                 0                       # Total TLB (inst and data) hits
system.cpu.itb.misses                               0                       # Total TLB (inst and data) misses
system.cpu.itb.accesses                             0                       # Total TLB (inst and data) accesses
system.cpu.itb.stage2_mmu.stage2_tlb.instHits            0                       # ITB inst hits
system.cpu.itb.stage2_mmu.stage2_tlb.instMisses            0                       # ITB inst misses
system.cpu.itb.stage2_mmu.stage2_tlb.readHits            0                       # DTB read hits
system.cpu.itb.stage2_mmu.stage2_tlb.readMisses            0                       # DTB read misses
system.cpu.itb.stage2_mmu.stage2_tlb.writeHits            0                       # DTB write hits
system.cpu.itb.stage2_mmu.stage2_tlb.writeMisses            0                       # DTB write misses
system.cpu.itb.stage2_mmu.stage2_tlb.inserts            0                       # Number of times an entry is inserted into the TLB
system.cpu.itb.stage2_mmu.stage2_tlb.flushTlb            0                       # Number of times complete TLB was flushed
system.cpu.itb.stage2_mmu.stage2_tlb.flushTlbMva            0                       # Number of times TLB was flushed by MVA
system.cpu.itb.stage2_mmu.stage2_tlb.flushTlbMvaAsid            0                       # Number of times TLB was flushed by MVA & ASID
system.cpu.itb.stage2_mmu.stage2_tlb.flushTlbAsid            0                       # Number of times TLB was flushed by ASID
system.cpu.itb.stage2_mmu.stage2_tlb.flushedEntries            0                       # Number of entries that have been flushed from TLB
system.cpu.itb.stage2_mmu.stage2_tlb.alignFaults            0                       # Number of TLB faults due to alignment restrictions
system.cpu.itb.stage2_mmu.stage2_tlb.prefetchFaults            0                       # Number of TLB faults due to prefetch
system.cpu.itb.stage2_mmu.stage2_tlb.domainFaults            0                       # Number of TLB faults due to domain restrictions
system.cpu.itb.stage2_mmu.stage2_tlb.permsFaults            0                       # Number of TLB faults due to permissions restrictions
system.cpu.itb.stage2_mmu.stage2_tlb.readAccesses            0                       # DTB read accesses
system.cpu.itb.stage2_mmu.stage2_tlb.writeAccesses            0                       # DTB write accesses
system.cpu.itb.stage2_mmu.stage2_tlb.instAccesses            0                       # ITB inst accesses
system.cpu.itb.stage2_mmu.stage2_tlb.hits            0                       # Total TLB (inst and data) hits
system.cpu.itb.stage2_mmu.stage2_tlb.misses            0                       # Total TLB (inst and data) misses
system.cpu.itb.stage2_mmu.stage2_tlb.accesses            0                       # Total TLB (inst and data) accesses
system.cpu.itb.stage2_mmu.stage2_tlb.walker.walks            0                       # Table walker walks requested
system.cpu.itb.stage2_mmu.stage2_tlb.walker.requestOrigin_Requested::Data            0                       # Table walker requests started/completed, data/inst
system.cpu.itb.stage2_mmu.stage2_tlb.walker.requestOrigin_Requested::Inst            0                       # Table walker requests started/completed, data/inst
system.cpu.itb.stage2_mmu.stage2_tlb.walker.requestOrigin_Requested::total            0                       # Table walker requests started/completed, data/inst
system.cpu.itb.stage2_mmu.stage2_tlb.walker.requestOrigin_Completed::Data            0                       # Table walker requests started/completed, data/inst
system.cpu.itb.stage2_mmu.stage2_tlb.walker.requestOrigin_Completed::Inst            0                       # Table walker requests started/completed, data/inst
system.cpu.itb.stage2_mmu.stage2_tlb.walker.requestOrigin_Completed::total            0                       # Table walker requests started/completed, data/inst
system.cpu.itb.stage2_mmu.stage2_tlb.walker.requestOrigin::total            0                       # Table walker requests started/completed, data/inst
system.cpu.itb.stage2_mmu.stage2_tlb.walker.power_state.pwrStateResidencyTicks::UNDEFINED 115536329000                       # Cumulative time (in ticks) in various power states
system.cpu.itb.walker.walks                         0                       # Table walker walks requested
system.cpu.itb.walker.requestOrigin_Requested::Data            0                       # Table walker requests started/completed, data/inst
system.cpu.itb.walker.requestOrigin_Requested::Inst            0                       # Table walker requests started/completed, data/inst
system.cpu.itb.walker.requestOrigin_Requested::total            0                       # Table walker requests started/completed, data/inst
system.cpu.itb.walker.requestOrigin_Completed::Data            0                       # Table walker requests started/completed, data/inst
system.cpu.itb.walker.requestOrigin_Completed::Inst            0                       # Table walker requests started/completed, data/inst
system.cpu.itb.walker.requestOrigin_Completed::total            0                       # Table walker requests started/completed, data/inst
system.cpu.itb.walker.requestOrigin::total            0                       # Table walker requests started/completed, data/inst
system.cpu.itb.walker.power_state.pwrStateResidencyTicks::UNDEFINED 115536329000                       # Cumulative time (in ticks) in various power states
system.cpu.power_state.pwrStateResidencyTicks::ON 115536329000                       # Cumulative time (in ticks) in various power states
system.cpu.thread_0.numInsts                100000001                       # Number of Instructions committed
system.cpu.thread_0.numOps                  109431834                       # Number of Ops committed
system.cpu.thread_0.numMemRefs                      0                       # Number of Memory References
system.cpu_clk_domain.clock                      1000                       # Clock period in ticks
system.cpu_voltage_domain.voltage                   1                       # Voltage in Volts
system.l2.demand_hits::.cpu.inst                  690                       # number of demand (read+write) hits
system.l2.demand_hits::.cpu.data                79205                       # number of demand (read+write) hits
system.l2.demand_hits::total                    79895                       # number of demand (read+write) hits
system.l2.overall_hits::.cpu.inst                 690                       # number of overall hits
system.l2.overall_hits::.cpu.data               79205                       # number of overall hits
system.l2.overall_hits::total                   79895                       # number of overall hits
system.l2.demand_misses::.cpu.inst                510                       # number of demand (read+write) misses
system.l2.demand_misses::.cpu.data              45824                       # number of demand (read+write) misses
system.l2.demand_misses::total                  46334                       # number of demand (read+write) misses
system.l2.overall_misses::.cpu.inst               510                       # number of overall misses
system.l2.overall_misses::.cpu.data             45824                       # number of overall misses
system.l2.overall_misses::total                 46334                       # number of overall misses
system.l2.demand_miss_latency::.cpu.inst     49555000                       # number of demand (read+write) miss cycles
system.l2.demand_miss_latency::.cpu.data   4846514000                       # number of demand (read+write) miss cycles
system.l2.demand_miss_latency::total       4896069000                       # number of demand (read+write) miss cycles
system.l2.overall_miss_latency::.cpu.inst     49555000                       # number of overall miss cycles
system.l2.overall_miss_latency::.cpu.data   4846514000                       # number of overall miss cycles
system.l2.overall_miss_latency::total      4896069000                       # number of overall miss cycles
system.l2.demand_accesses::.cpu.inst             1200                       # number of demand (read+write) accesses
system.l2.demand_accesses::.cpu.data           125029                       # number of demand (read+write) accesses
system.l2.demand_accesses::total               126229                       # number of demand (read+write) accesses
system.l2.overall_accesses::.cpu.inst            1200                       # number of overall (read+write) accesses
system.l2.overall_accesses::.cpu.data          125029                       # number of overall (read+write) accesses
system.l2.overall_accesses::total              126229                       # number of overall (read+write) accesses
system.l2.demand_miss_rate::.cpu.inst        0.425000                       # miss rate for demand accesses
system.l2.demand_miss_rate::.cpu.data        0.366507                       # miss rate for demand accesses
system.l2.demand_miss_rate::total            0.367063                       # miss rate for demand accesses
system.l2.overall_miss_rate::.cpu.inst       0.425000                       # miss rate for overall accesses
system.l2.overall_miss_rate::.cpu.data       0.366507                       # miss rate for overall accesses
system.l2.overall_miss_rate::total           0.367063                       # miss rate for overall accesses
system.l2.demand_avg_miss_latency::.cpu.inst 97166.666667                       # average overall miss latency
system.l2.demand_avg_miss_latency::.cpu.data 105763.660964                       # average overall miss latency
system.l2.demand_avg_miss_latency::total 105669.033539                       # average overall miss latency
system.l2.overall_avg_miss_latency::.cpu.inst 97166.666667                       # average overall miss latency
system.l2.overall_avg_miss_latency::.cpu.data 105763.660964                       # average overall miss latency
system.l2.overall_avg_miss_latency::total 105669.033539                       # average overall miss latency
system.l2.blocked_cycles::no_mshrs                  0                       # number of cycles access was blocked
system.l2.blocked_cycles::no_targets                0                       # number of cycles access was blocked
system.l2.blocked::no_mshrs                         0                       # number of cycles access was blocked
system.l2.blocked::no_targets                       0                       # number of cycles access was blocked
system.l2.avg_blocked_cycles::no_mshrs            nan                       # average number of cycles each access was blocked
system.l2.avg_blocked_cycles::no_targets          nan                       # average number of cycles each access was blocked
system.l2.writebacks::.writebacks               37567                       # number of writebacks
system.l2.writebacks::total                     37567                       # number of writebacks
system.l2.demand_mshr_hits::.cpu.inst               1                       # number of demand (read+write) MSHR hits
system.l2.demand_mshr_hits::.cpu.data               5                       # number of demand (read+write) MSHR hits
system.l2.demand_mshr_hits::total                   6                       # number of demand (read+write) MSHR hits
system.l2.overall_mshr_hits::.cpu.inst              1                       # number of overall MSHR hits
system.l2.overall_mshr_hits::.cpu.data              5                       # number of overall MSHR hits
system.l2.overall_mshr_hits::total                  6                       # number of overall MSHR hits
system.l2.demand_mshr_misses::.cpu.inst           509                       # number of demand (read+write) MSHR misses
system.l2.demand_mshr_misses::.cpu.data         45819                       # number of demand (read+write) MSHR misses
system.l2.demand_mshr_misses::total             46328                       # number of demand (read+write) MSHR misses
system.l2.overall_mshr_misses::.cpu.inst          509                       # number of overall MSHR misses
system.l2.overall_mshr_misses::.cpu.data        45819                       # number of overall MSHR misses
system.l2.overall_mshr_misses::total            46328                       # number of overall MSHR misses
system.l2.demand_mshr_miss_latency::.cpu.inst     39295000                       # number of demand (read+write) MSHR miss cycles
system.l2.demand_mshr_miss_latency::.cpu.data   3929726000                       # number of demand (read+write) MSHR miss cycles
system.l2.demand_mshr_miss_latency::total   3969021000                       # number of demand (read+write) MSHR miss cycles
system.l2.overall_mshr_miss_latency::.cpu.inst     39295000                       # number of overall MSHR miss cycles
system.l2.overall_mshr_miss_latency::.cpu.data   3929726000                       # number of overall MSHR miss cycles
system.l2.overall_mshr_miss_latency::total   3969021000                       # number of overall MSHR miss cycles
system.l2.demand_mshr_miss_rate::.cpu.inst     0.424167                       # mshr miss rate for demand accesses
system.l2.demand_mshr_miss_rate::.cpu.data     0.366467                       # mshr miss rate for demand accesses
system.l2.demand_mshr_miss_rate::total       0.367016                       # mshr miss rate for demand accesses
system.l2.overall_mshr_miss_rate::.cpu.inst     0.424167                       # mshr miss rate for overall accesses
system.l2.overall_mshr_miss_rate::.cpu.data     0.366467                       # mshr miss rate for overall accesses
system.l2.overall_mshr_miss_rate::total      0.367016                       # mshr miss rate for overall accesses
system.l2.demand_avg_mshr_miss_latency::.cpu.inst 77200.392927                       # average overall mshr miss latency
system.l2.demand_avg_mshr_miss_latency::.cpu.data 85766.297824                       # average overall mshr miss latency
system.l2.demand_avg_mshr_miss_latency::total 85672.185288                       # average overall mshr miss latency
system.l2.overall_avg_mshr_miss_latency::.cpu.inst 77200.392927                       # average overall mshr miss latency
system.l2.overall_avg_mshr_miss_latency::.cpu.data 85766.297824                       # average overall mshr miss latency
system.l2.overall_avg_mshr_miss_latency::total 85672.185288                       # average overall mshr miss latency
system.l2.replacements                          38141                       # number of replacements
system.l2.WritebackDirty_hits::.writebacks        72343                       # number of WritebackDirty hits
system.l2.WritebackDirty_hits::total            72343                       # number of WritebackDirty hits
system.l2.WritebackDirty_accesses::.writebacks        72343                       # number of WritebackDirty accesses(hits+misses)
system.l2.WritebackDirty_accesses::total        72343                       # number of WritebackDirty accesses(hits+misses)
system.l2.WritebackClean_hits::.writebacks          755                       # number of WritebackClean hits
system.l2.WritebackClean_hits::total              755                       # number of WritebackClean hits
system.l2.WritebackClean_accesses::.writebacks          755                       # number of WritebackClean accesses(hits+misses)
system.l2.WritebackClean_accesses::total          755                       # number of WritebackClean accesses(hits+misses)
system.l2.ReadExReq_hits::.cpu.data              8985                       # number of ReadExReq hits
system.l2.ReadExReq_hits::total                  8985                       # number of ReadExReq hits
system.l2.ReadExReq_misses::.cpu.data           38812                       # number of ReadExReq misses
system.l2.ReadExReq_misses::total               38812                       # number of ReadExReq misses
system.l2.ReadExReq_miss_latency::.cpu.data   4079819000                       # number of ReadExReq miss cycles
system.l2.ReadExReq_miss_latency::total    4079819000                       # number of ReadExReq miss cycles
system.l2.ReadExReq_accesses::.cpu.data         47797                       # number of ReadExReq accesses(hits+misses)
system.l2.ReadExReq_accesses::total             47797                       # number of ReadExReq accesses(hits+misses)
system.l2.ReadExReq_miss_rate::.cpu.data     0.812017                       # miss rate for ReadExReq accesses
system.l2.ReadExReq_miss_rate::total         0.812017                       # miss rate for ReadExReq accesses
system.l2.ReadExReq_avg_miss_latency::.cpu.data 105117.463671                       # average ReadExReq miss latency
system.l2.ReadExReq_avg_miss_latency::total 105117.463671                       # average ReadExReq miss latency
system.l2.ReadExReq_mshr_misses::.cpu.data        38812                       # number of ReadExReq MSHR misses
system.l2.ReadExReq_mshr_misses::total          38812                       # number of ReadExReq MSHR misses
system.l2.ReadExReq_mshr_miss_latency::.cpu.data   3303579000                       # number of ReadExReq MSHR miss cycles
system.l2.ReadExReq_mshr_miss_latency::total   3303579000                       # number of ReadExReq MSHR miss cycles
system.l2.ReadExReq_mshr_miss_rate::.cpu.data     0.812017                       # mshr miss rate for ReadExReq accesses
system.l2.ReadExReq_mshr_miss_rate::total     0.812017                       # mshr miss rate for ReadExReq accesses
system.l2.ReadExReq_avg_mshr_miss_latency::.cpu.data 85117.463671                       # average ReadExReq mshr miss latency
system.l2.ReadExReq_avg_mshr_miss_latency::total 85117.463671                       # average ReadExReq mshr miss latency
system.l2.ReadCleanReq_hits::.cpu.inst            690                       # number of ReadCleanReq hits
system.l2.ReadCleanReq_hits::total                690                       # number of ReadCleanReq hits
system.l2.ReadCleanReq_misses::.cpu.inst          510                       # number of ReadCleanReq misses
system.l2.ReadCleanReq_misses::total              510                       # number of ReadCleanReq misses
system.l2.ReadCleanReq_miss_latency::.cpu.inst     49555000                       # number of ReadCleanReq miss cycles
system.l2.ReadCleanReq_miss_latency::total     49555000                       # number of ReadCleanReq miss cycles
system.l2.ReadCleanReq_accesses::.cpu.inst         1200                       # number of ReadCleanReq accesses(hits+misses)
system.l2.ReadCleanReq_accesses::total           1200                       # number of ReadCleanReq accesses(hits+misses)
system.l2.ReadCleanReq_miss_rate::.cpu.inst     0.425000                       # miss rate for ReadCleanReq accesses
system.l2.ReadCleanReq_miss_rate::total      0.425000                       # miss rate for ReadCleanReq accesses
system.l2.ReadCleanReq_avg_miss_latency::.cpu.inst 97166.666667                       # average ReadCleanReq miss latency
system.l2.ReadCleanReq_avg_miss_latency::total 97166.666667                       # average ReadCleanReq miss latency
system.l2.ReadCleanReq_mshr_hits::.cpu.inst            1                       # number of ReadCleanReq MSHR hits
system.l2.ReadCleanReq_mshr_hits::total             1                       # number of ReadCleanReq MSHR hits
system.l2.ReadCleanReq_mshr_misses::.cpu.inst          509                       # number of ReadCleanReq MSHR misses
system.l2.ReadCleanReq_mshr_misses::total          509                       # number of ReadCleanReq MSHR misses
system.l2.ReadCleanReq_mshr_miss_latency::.cpu.inst     39295000                       # number of ReadCleanReq MSHR miss cycles
system.l2.ReadCleanReq_mshr_miss_latency::total     39295000                       # number of ReadCleanReq MSHR miss cycles
system.l2.ReadCleanReq_mshr_miss_rate::.cpu.inst     0.424167                       # mshr miss rate for ReadCleanReq accesses
system.l2.ReadCleanReq_mshr_miss_rate::total     0.424167                       # mshr miss rate for ReadCleanReq accesses
system.l2.ReadCleanReq_avg_mshr_miss_latency::.cpu.inst 77200.392927                       # average ReadCleanReq mshr miss latency
system.l2.ReadCleanReq_avg_mshr_miss_latency::total 77200.392927                       # average ReadCleanReq mshr miss latency
system.l2.ReadSharedReq_hits::.cpu.data         70220                       # number of ReadSharedReq hits
system.l2.ReadSharedReq_hits::total             70220                       # number of ReadSharedReq hits
system.l2.ReadSharedReq_misses::.cpu.data         7012                       # number of ReadSharedReq misses
system.l2.ReadSharedReq_misses::total            7012                       # number of ReadSharedReq misses
system.l2.ReadSharedReq_miss_latency::.cpu.data    766695000                       # number of ReadSharedReq miss cycles
system.l2.ReadSharedReq_miss_latency::total    766695000                       # number of ReadSharedReq miss cycles
system.l2.ReadSharedReq_accesses::.cpu.data        77232                       # number of ReadSharedReq accesses(hits+misses)
system.l2.ReadSharedReq_accesses::total         77232                       # number of ReadSharedReq accesses(hits+misses)
system.l2.ReadSharedReq_miss_rate::.cpu.data     0.090791                       # miss rate for ReadSharedReq accesses
system.l2.ReadSharedReq_miss_rate::total     0.090791                       # miss rate for ReadSharedReq accesses
system.l2.ReadSharedReq_avg_miss_latency::.cpu.data 109340.416429                       # average ReadSharedReq miss latency
system.l2.ReadSharedReq_avg_miss_latency::total 109340.416429                       # average ReadSharedReq miss latency
system.l2.ReadSharedReq_mshr_hits::.cpu.data            5                       # number of ReadSharedReq MSHR hits
system.l2.ReadSharedReq_mshr_hits::total            5                       # number of ReadSharedReq MSHR hits
system.l2.ReadSharedReq_mshr_misses::.cpu.data         7007                       # number of ReadSharedReq MSHR misses
system.l2.ReadSharedReq_mshr_misses::total         7007                       # number of ReadSharedReq MSHR misses
system.l2.ReadSharedReq_mshr_miss_latency::.cpu.data    626147000                       # number of ReadSharedReq MSHR miss cycles
system.l2.ReadSharedReq_mshr_miss_latency::total    626147000                       # number of ReadSharedReq MSHR miss cycles
system.l2.ReadSharedReq_mshr_miss_rate::.cpu.data     0.090727                       # mshr miss rate for ReadSharedReq accesses
system.l2.ReadSharedReq_mshr_miss_rate::total     0.090727                       # mshr miss rate for ReadSharedReq accesses
system.l2.ReadSharedReq_avg_mshr_miss_latency::.cpu.data 89360.211217                       # average ReadSharedReq mshr miss latency
system.l2.ReadSharedReq_avg_mshr_miss_latency::total 89360.211217                       # average ReadSharedReq mshr miss latency
system.l2.power_state.pwrStateResidencyTicks::UNDEFINED 115536329000                       # Cumulative time (in ticks) in various power states
system.l2.tags.tagsinuse                  8003.504399                       # Cycle average of tags in use
system.l2.tags.total_refs                      248975                       # Total number of references to valid blocks.
system.l2.tags.sampled_refs                     46333                       # Sample count of references to valid blocks.
system.l2.tags.avg_refs                      5.373600                       # Average number of references to valid blocks.
system.l2.tags.warmup_cycle                     87000                       # Cycle when the warmup percentage was hit.
system.l2.tags.occ_blocks::.writebacks       3.622941                       # Average occupied blocks per requestor
system.l2.tags.occ_blocks::.cpu.inst        33.247598                       # Average occupied blocks per requestor
system.l2.tags.occ_blocks::.cpu.data      7966.633860                       # Average occupied blocks per requestor
system.l2.tags.occ_percent::.writebacks      0.000442                       # Average percentage of cache occupancy
system.l2.tags.occ_percent::.cpu.inst        0.004059                       # Average percentage of cache occupancy
system.l2.tags.occ_percent::.cpu.data        0.972489                       # Average percentage of cache occupancy
system.l2.tags.occ_percent::total            0.976990                       # Average percentage of cache occupancy
system.l2.tags.occ_task_id_blocks::1024          8192                       # Occupied blocks per task id
system.l2.tags.age_task_id_blocks_1024::0            2                       # Occupied blocks per task id
system.l2.tags.age_task_id_blocks_1024::1           17                       # Occupied blocks per task id
system.l2.tags.age_task_id_blocks_1024::2          232                       # Occupied blocks per task id
system.l2.tags.age_task_id_blocks_1024::3         2528                       # Occupied blocks per task id
system.l2.tags.age_task_id_blocks_1024::4         5413                       # Occupied blocks per task id
system.l2.tags.occ_task_id_percent::1024            1                       # Percentage of cache occupancy per task id
system.l2.tags.tag_accesses                   1042257                       # Number of tag accesses
system.l2.tags.data_accesses                  1042257                       # Number of data accesses
system.l2.tags.power_state.pwrStateResidencyTicks::UNDEFINED 115536329000                       # Cumulative time (in ticks) in various power states
system.mem_ctrls.avgPriority_.writebacks::samples     37566.00                       # Average QoS priority value for accepted requests
system.mem_ctrls.avgPriority_.cpu.inst::samples       509.00                       # Average QoS priority value for accepted requests
system.mem_ctrls.avgPriority_.cpu.data::samples     45803.00                       # Average QoS priority value for accepted requests
system.mem_ctrls.priorityMinLatency      0.000000018750                       # per QoS priority minimum request to response latency (s)
system.mem_ctrls.priorityMaxLatency      0.002387256500                       # per QoS priority maximum request to response latency (s)
system.mem_ctrls.numReadWriteTurnArounds         2101                       # Number of turnarounds from READ to WRITE
system.mem_ctrls.numWriteReadTurnArounds         2101                       # Number of turnarounds from WRITE to READ
system.mem_ctrls.numStayReadState              159349                       # Number of times bus staying in READ state
system.mem_ctrls.numStayWriteState              35476                       # Number of times bus staying in WRITE state
system.mem_ctrls.readReqs                       46328                       # Number of read requests accepted
system.mem_ctrls.writeReqs                      37566                       # Number of write requests accepted
system.mem_ctrls.readBursts                     46328                       # Number of controller read bursts, including those serviced by the write queue
system.mem_ctrls.writeBursts                    37566                       # Number of controller write bursts, including those merged in the write queue
system.mem_ctrls.servicedByWrQ                     16                       # Number of controller read bursts serviced by the write queue
system.mem_ctrls.mergedWrBursts                     0                       # Number of controller write bursts merged with an existing one
system.mem_ctrls.neitherReadNorWriteReqs            0                       # Number of requests that are neither read nor write
system.mem_ctrls.avgRdQLen                       1.05                       # Average read queue length when enqueuing
system.mem_ctrls.avgWrQLen                      23.48                       # Average write queue length when enqueuing
system.mem_ctrls.numRdRetry                         0                       # Number of times read queue was full causing retry
system.mem_ctrls.numWrRetry                         0                       # Number of times write queue was full causing retry
system.mem_ctrls.readPktSize::0                     0                       # Read request sizes (log2)
system.mem_ctrls.readPktSize::1                     0                       # Read request sizes (log2)
system.mem_ctrls.readPktSize::2                     0                       # Read request sizes (log2)
system.mem_ctrls.readPktSize::3                     0                       # Read request sizes (log2)
[...]
system.mem_ctrls.dram.bw_write::.writebacks     20809247                       # Write bandwidth from this memory (bytes/s)
system.mem_ctrls.dram.bw_write::total        20809247                       # Write bandwidth from this memory (bytes/s)
system.mem_ctrls.dram.bw_total::.writebacks     20809247                       # Total bandwidth to/from this memory (bytes/s)
system.mem_ctrls.dram.bw_total::.cpu.inst       281955                       # Total bandwidth to/from this memory (bytes/s)
system.mem_ctrls.dram.bw_total::.cpu.data     25380900                       # Total bandwidth to/from this memory (bytes/s)
system.mem_ctrls.dram.bw_total::total        46472101                       # Total bandwidth to/from this memory (bytes/s)
system.mem_ctrls.dram.readBursts                46312                       # Number of DRAM read bursts
system.mem_ctrls.dram.writeBursts               37550                       # Number of DRAM write bursts
system.mem_ctrls.dram.perBankRdBursts::0         2855                       # Per bank write bursts
system.mem_ctrls.dram.perBankRdBursts::1         2866                       # Per bank write bursts
system.mem_ctrls.dram.perBankRdBursts::2         2833                       # Per bank write bursts
system.mem_ctrls.dram.perBankRdBursts::3         2937                       # Per bank write bursts
system.mem_ctrls.dram.perBankRdBursts::4         2918                       # Per bank write bursts
system.mem_ctrls.dram.perBankRdBursts::5         2790                       # Per bank write bursts
system.mem_ctrls.dram.perBankRdBursts::6         2884                       # Per bank write bursts
system.mem_ctrls.dram.perBankRdBursts::7         2981                       # Per bank write bursts
system.mem_ctrls.dram.perBankRdBursts::8         2849                       # Per bank write bursts
system.mem_ctrls.dram.perBankRdBursts::9         2920                       # Per bank write bursts
system.mem_ctrls.dram.perBankRdBursts::10         2943                       # Per bank write bursts
system.mem_ctrls.dram.perBankRdBursts::11         2864                       # Per bank write bursts
system.mem_ctrls.dram.perBankRdBursts::12         2958                       # Per bank write bursts
system.mem_ctrls.dram.perBankRdBursts::13         2839                       # Per bank write bursts
system.mem_ctrls.dram.perBankRdBursts::14         2973                       # Per bank write bursts
system.mem_ctrls.dram.perBankRdBursts::15         2902                       # Per bank write bursts
system.mem_ctrls.dram.perBankWrBursts::0         2300                       # Per bank write bursts
system.mem_ctrls.dram.perBankWrBursts::1         2327                       # Per bank write bursts
system.mem_ctrls.dram.perBankWrBursts::2         2309                       # Per bank write bursts
system.mem_ctrls.dram.perBankWrBursts::3         2331                       # Per bank write bursts
system.mem_ctrls.dram.perBankWrBursts::4         2380                       # Per bank write bursts
system.mem_ctrls.dram.perBankWrBursts::5         2278                       # Per bank write bursts
system.mem_ctrls.dram.perBankWrBursts::6         2373                       # Per bank write bursts
system.mem_ctrls.dram.perBankWrBursts::7         2442                       # Per bank write bursts
system.mem_ctrls.dram.perBankWrBursts::8         2318                       # Per bank write bursts
system.mem_ctrls.dram.perBankWrBursts::9         2353                       # Per bank write bursts
system.mem_ctrls.dram.perBankWrBursts::10         2395                       # Per bank write bursts
system.mem_ctrls.dram.perBankWrBursts::11         2291                       # Per bank write bursts
system.mem_ctrls.dram.perBankWrBursts::12         2396                       # Per bank write bursts
system.mem_ctrls.dram.perBankWrBursts::13         2309                       # Per bank write bursts
system.mem_ctrls.dram.perBankWrBursts::14         2388                       # Per bank write bursts
system.mem_ctrls.dram.perBankWrBursts::15         2360                       # Per bank write bursts
system.mem_ctrls.dram.totQLat               720148750                       # Total ticks spent queuing
system.mem_ctrls.dram.totBusLat             231560000                       # Total ticks spent in databus transfers
system.mem_ctrls.dram.totMemAccLat         1588498750                       # Total ticks spent from burst creation until serviced by the DRAM
system.mem_ctrls.dram.avgQLat                15549.94                       # Average queueing delay per DRAM burst
system.mem_ctrls.dram.avgBusLat               5000.00                       # Average bus latency per DRAM burst
system.mem_ctrls.dram.avgMemAccLat           34299.94                       # Average memory access latency per DRAM burst
system.mem_ctrls.dram.readRowHits               20850                       # Number of row buffer hits during reads
system.mem_ctrls.dram.writeRowHits              26215                       # Number of row buffer hits during writes
system.mem_ctrls.dram.readRowHitRate            45.02                       # Row buffer hit rate for reads
system.mem_ctrls.dram.writeRowHitRate           69.81                       # Row buffer hit rate for writes
system.mem_ctrls.dram.bytesPerActivate::samples        36796                       # Bytes accessed per row activation
system.mem_ctrls.dram.bytesPerActivate::mean   145.861072                       # Bytes accessed per row activation
system.mem_ctrls.dram.bytesPerActivate::gmean   104.352582                       # Bytes accessed per row activation
system.mem_ctrls.dram.bytesPerActivate::stdev   170.892787                       # Bytes accessed per row activation
system.mem_ctrls.dram.bytesPerActivate::0-127        21343     58.00%     58.00% # Bytes accessed per row activation
system.mem_ctrls.dram.bytesPerActivate::128-255        10057     27.33%     85.34% # Bytes accessed per row activation
system.mem_ctrls.dram.bytesPerActivate::256-383         2122      5.77%     91.10% # Bytes accessed per row activation
system.mem_ctrls.dram.bytesPerActivate::384-511         1353      3.68%     94.78% # Bytes accessed per row activation
system.mem_ctrls.dram.bytesPerActivate::512-639          694      1.89%     96.67% # Bytes accessed per row activation
system.mem_ctrls.dram.bytesPerActivate::640-767          283      0.77%     97.43% # Bytes accessed per row activation
system.mem_ctrls.dram.bytesPerActivate::768-895          248      0.67%     98.11% # Bytes accessed per row activation
system.mem_ctrls.dram.bytesPerActivate::896-1023          221      0.60%     98.71% # Bytes accessed per row activation
system.mem_ctrls.dram.bytesPerActivate::1024-1151          475      1.29%    100.00% # Bytes accessed per row activation
system.mem_ctrls.dram.bytesPerActivate::total        36796                       # Bytes accessed per row activation
system.mem_ctrls.dram.bytesRead               2963968                       # Total number of bytes read from DRAM
system.mem_ctrls.dram.bytesWritten            2403200                       # Total number of bytes written to DRAM
system.mem_ctrls.dram.avgRdBW               25.653991                       # Average DRAM read bandwidth in MiBytes/s
system.mem_ctrls.dram.avgWrBW               20.800384                       # Average DRAM write bandwidth in MiBytes/s
system.mem_ctrls.dram.peakBW                 12800.00                       # Theoretical peak bandwidth in MiByte/s
system.mem_ctrls.dram.busUtil                    0.36                       # Data bus utilization in percentage
system.mem_ctrls.dram.busUtilRead                0.20                       # Data bus utilization in percentage for reads
system.mem_ctrls.dram.busUtilWrite               0.16                       # Data bus utilization in percentage for writes
system.mem_ctrls.dram.pageHitRate               56.12                       # Row buffer hit rate, read and write combined
system.mem_ctrls.dram.power_state.pwrStateResidencyTicks::UNDEFINED 115536329000                       # Cumulative time (in ticks) in various power states
system.mem_ctrls.dram.rank0.actEnergy       132025740                       # Energy for activate commands per rank (pJ)
system.mem_ctrls.dram.rank0.preEnergy        70169550                       # Energy for precharge commands per rank (pJ)
system.mem_ctrls.dram.rank0.readEnergy      164676960                       # Energy for read commands per rank (pJ)
system.mem_ctrls.dram.rank0.writeEnergy      97822800                       # Energy for write commands per rank (pJ)
system.mem_ctrls.dram.rank0.refreshEnergy 9120028320.000002                       # Energy for refresh commands per rank (pJ)
system.mem_ctrls.dram.rank0.actBackEnergy  24928638210                       # Energy for active background per rank (pJ)
system.mem_ctrls.dram.rank0.preBackEnergy  23373413280                       # Energy for precharge background per rank (pJ)
system.mem_ctrls.dram.rank0.actPowerDownEnergy            0                       # Energy for active power-down per rank (pJ)
system.mem_ctrls.dram.rank0.prePowerDownEnergy            0                       # Energy for precharge power-down per rank (pJ)
system.mem_ctrls.dram.rank0.selfRefreshEnergy            0                       # Energy for self refresh per rank (pJ)
system.mem_ctrls.dram.rank0.totalEnergy   57886774860                       # Total energy per rank (pJ)
system.mem_ctrls.dram.rank0.averagePower   501.026607                       # Core power per rank (mW)
system.mem_ctrls.dram.rank0.totalIdleTime            0                       # Total Idle time Per DRAM Rank
system.mem_ctrls.dram.rank0.pwrStateTime::IDLE  60521434500                       # Time in different power states
system.mem_ctrls.dram.rank0.pwrStateTime::REF   3857880000                       # Time in different power states
system.mem_ctrls.dram.rank0.pwrStateTime::SREF            0                       # Time in different power states
system.mem_ctrls.dram.rank0.pwrStateTime::PRE_PDN            0                       # Time in different power states
system.mem_ctrls.dram.rank0.pwrStateTime::ACT  51157014500                       # Time in different power states
system.mem_ctrls.dram.rank0.pwrStateTime::ACT_PDN            0                       # Time in different power states
system.mem_ctrls.dram.rank1.actEnergy       130704840                       # Energy for activate commands per rank (pJ)
system.mem_ctrls.dram.rank1.preEnergy        69471270                       # Energy for precharge commands per rank (pJ)
system.mem_ctrls.dram.rank1.readEnergy      165990720                       # Energy for read commands per rank (pJ)
system.mem_ctrls.dram.rank1.writeEnergy      98188200                       # Energy for write commands per rank (pJ)
system.mem_ctrls.dram.rank1.refreshEnergy 9120028320.000002                       # Energy for refresh commands per rank (pJ)
system.mem_ctrls.dram.rank1.actBackEnergy  25244480910                       # Energy for active background per rank (pJ)
system.mem_ctrls.dram.rank1.preBackEnergy  23107440480                       # Energy for precharge background per rank (pJ)
system.mem_ctrls.dram.rank1.actPowerDownEnergy            0                       # Energy for active power-down per rank (pJ)
system.mem_ctrls.dram.rank1.prePowerDownEnergy            0                       # Energy for precharge power-down per rank (pJ)
system.mem_ctrls.dram.rank1.selfRefreshEnergy            0                       # Energy for self refresh per rank (pJ)
system.mem_ctrls.dram.rank1.totalEnergy   57936304740                       # Total energy per rank (pJ)
system.mem_ctrls.dram.rank1.averagePower   501.455302                       # Core power per rank (mW)
system.mem_ctrls.dram.rank1.totalIdleTime            0                       # Total Idle time Per DRAM Rank
system.mem_ctrls.dram.rank1.pwrStateTime::IDLE  59824767000                       # Time in different power states
system.mem_ctrls.dram.rank1.pwrStateTime::REF   3857880000                       # Time in different power states
system.mem_ctrls.dram.rank1.pwrStateTime::SREF            0                       # Time in different power states
system.mem_ctrls.dram.rank1.pwrStateTime::PRE_PDN            0                       # Time in different power states
system.mem_ctrls.dram.rank1.pwrStateTime::ACT  51853682000                       # Time in different power states
system.mem_ctrls.dram.rank1.pwrStateTime::ACT_PDN            0                       # Time in different power states
system.mem_ctrls.power_state.pwrStateResidencyTicks::UNDEFINED 115536329000                       # Cumulative time (in ticks) in various power states
system.membus.trans_dist::ReadResp               7516                       # Transaction distribution
system.membus.trans_dist::WritebackDirty        37566                       # Transaction distribution
system.membus.trans_dist::CleanEvict              136                       # Transaction distribution
system.membus.trans_dist::ReadExReq             38812                       # Transaction distribution
system.membus.trans_dist::ReadExResp            38812                       # Transaction distribution
system.membus.trans_dist::ReadSharedReq          7516                       # Transaction distribution
system.membus.pkt_count_system.l2.mem_side_port::system.mem_ctrls.port       130358                       # Packet count per connected requestor and responder (bytes)
system.membus.pkt_count::total                 130358                       # Packet count per connected requestor and responder (bytes)
system.membus.pkt_size_system.l2.mem_side_port::system.mem_ctrls.port      5369216                       # Cumulative packet size per connected requestor and responder (bytes)
system.membus.pkt_size::total                 5369216                       # Cumulative packet size per connected requestor and responder (bytes)
system.membus.snoops                                0                       # Total snoops (count)
system.membus.snoopTraffic                          0                       # Total snoop traffic (bytes)
system.membus.snoop_fanout::samples             46328                       # Request fanout histogram
system.membus.snoop_fanout::mean                    0                       # Request fanout histogram
system.membus.snoop_fanout::stdev                   0                       # Request fanout histogram
system.membus.snoop_fanout::underflows              0      0.00%      0.00% # Request fanout histogram
system.membus.snoop_fanout::0                   46328    100.00%    100.00% # Request fanout histogram
system.membus.snoop_fanout::1                       0      0.00%    100.00% # Request fanout histogram
system.membus.snoop_fanout::overflows               0      0.00%    100.00% # Request fanout histogram
system.membus.snoop_fanout::min_value               0                       # Request fanout histogram
system.membus.snoop_fanout::max_value               0                       # Request fanout histogram
system.membus.snoop_fanout::total               46328                       # Request fanout histogram
system.membus.power_state.pwrStateResidencyTicks::UNDEFINED 115536329000                       # Cumulative time (in ticks) in various power states
system.membus.reqLayer0.occupancy           234294000                       # Layer occupancy (ticks)
system.membus.reqLayer0.utilization               0.2                       # Layer utilization (%)
system.membus.respLayer1.occupancy          249581000                       # Layer occupancy (ticks)
system.membus.respLayer1.utilization              0.2                       # Layer utilization (%)
system.tol2bus.trans_dist::ReadResp             78432                       # Transaction distribution
system.tol2bus.trans_dist::WritebackDirty       109910                       # Transaction distribution
system.tol2bus.trans_dist::WritebackClean          758                       # Transaction distribution
system.tol2bus.trans_dist::CleanEvict           52747                       # Transaction distribution
system.tol2bus.trans_dist::ReadExReq            47797                       # Transaction distribution
system.tol2bus.trans_dist::ReadExResp           47796                       # Transaction distribution
system.tol2bus.trans_dist::ReadCleanReq          1200                       # Transaction distribution
system.tol2bus.trans_dist::ReadSharedReq        77232                       # Transaction distribution
system.tol2bus.pkt_count_system.cpu.icache.mem_side_port::system.l2.cpu_side_port         3158                       # Packet count per connected requestor and responder (bytes)
system.tol2bus.pkt_count_system.cpu.dcache.mem_side_port::system.l2.cpu_side_port       374573                       # Packet count per connected requestor and responder (bytes)
system.tol2bus.pkt_count::total                377731                       # Packet count per connected requestor and responder (bytes)
system.tol2bus.pkt_size_system.cpu.icache.mem_side_port::system.l2.cpu_side_port       125312                       # Cumulative packet size per connected requestor and responder (bytes)
system.tol2bus.pkt_size_system.cpu.dcache.mem_side_port::system.l2.cpu_side_port     12631744                       # Cumulative packet size per connected requestor and responder (bytes)
system.tol2bus.pkt_size::total               12757056                       # Cumulative packet size per connected requestor and responder (bytes)
system.tol2bus.snoops                           38141                       # Total snoops (count)
system.tol2bus.snoopTraffic                   2404288                       # Total snoop traffic (bytes)
system.tol2bus.snoop_fanout::samples           164370                       # Request fanout histogram
system.tol2bus.snoop_fanout::mean            0.018032                       # Request fanout histogram
system.tol2bus.snoop_fanout::stdev           0.133069                       # Request fanout histogram
system.tol2bus.snoop_fanout::underflows             0      0.00%      0.00% # Request fanout histogram
system.tol2bus.snoop_fanout::0                 161406     98.20%     98.20% # Request fanout histogram
system.tol2bus.snoop_fanout::1                   2964      1.80%    100.00% # Request fanout histogram
system.tol2bus.snoop_fanout::2                      0      0.00%    100.00% # Request fanout histogram
system.tol2bus.snoop_fanout::overflows              0      0.00%    100.00% # Request fanout histogram
system.tol2bus.snoop_fanout::min_value              0                       # Request fanout histogram
system.tol2bus.snoop_fanout::max_value              1                       # Request fanout histogram
system.tol2bus.snoop_fanout::total             164370                       # Request fanout histogram
system.tol2bus.power_state.pwrStateResidencyTicks::UNDEFINED 115536329000                       # Cumulative time (in ticks) in various power states
system.tol2bus.reqLayer0.occupancy          397705000                       # Layer occupancy (ticks)
system.tol2bus.reqLayer0.utilization              0.3                       # Layer utilization (%)
system.tol2bus.respLayer0.occupancy           3600999                       # Layer occupancy (ticks)
system.tol2bus.respLayer0.utilization             0.0                       # Layer utilization (%)
system.tol2bus.respLayer1.occupancy         375088995                       # Layer occupancy (ticks)
system.tol2bus.respLayer1.utilization             0.3                       # Layer utilization (%)
system.voltage_domain.voltage                       1                       # Voltage in Volts

---------- End Simulation Statistics   ----------
