
---------- Begin Simulation Statistics ----------
final_tick                               138928501000                       # Number of ticks from beginning of simulation (restored from checkpoints and never reset)
host_inst_rate                                 406394                       # Simulator instruction rate (inst/s)
host_mem_usage                                 665552                       # Number of bytes of host memory used
host_op_rate                                   410876                       # Simulator op (including micro ops) rate (op/s)
host_seconds                                   246.07                       # Real time elapsed on the host
host_tick_rate                              564596657                       # Simulator tick rate (ticks/s)
sim_freq                                 1000000000000                       # Frequency of simulated ticks
sim_insts                                   100000000                       # Number of instructions simulated
sim_ops                                     101102842                       # Number of ops (including micro ops) simulated
sim_seconds                                  0.138929                       # Number of seconds simulated
sim_ticks                                138928501000                       # Number of ticks simulated
system.cpu.committedInsts                   100000000                       # Number of instructions committed
system.cpu.committedOps                     101102842                       # Number of ops (including micro ops) committed
system.cpu.cpi                               1.389285                       # CPI: cycles per instruction
system.cpu.discardedOps                        981216                       # Number of ops (including micro ops) which were discarded before commit
system.cpu.idleCycles                        21120337                       # Total number of cycles that the object has spent stopped
system.cpu.ipc                               0.719795                       # IPC: instructions per cycle
system.cpu.numCycles                        138928501                       # number of cpu cycles simulated
system.cpu.numFetchSuspends                         0                       # Number of times Execute suspended instruction fetching
system.cpu.numWorkItemsCompleted                    0                       # number of work items this cpu completed
system.cpu.numWorkItemsStarted                      0                       # number of work items this cpu started
system.cpu.op_class_0::No_OpClass                   0      0.00%      0.00% # Class of committed instruction
system.cpu.op_class_0::IntAlu                55116018     54.51%     54.51% # Class of committed instruction
system.cpu.op_class_0::IntMult                 167845      0.17%     54.68% # Class of committed instruction
system.cpu.op_class_0::IntDiv                       0      0.00%     54.68% # Class of committed instruction
system.cpu.op_class_0::FloatAdd                     0      0.00%     54.68% # Class of committed instruction
system.cpu.op_class_0::FloatCmp                     0      0.00%     54.68% # Class of committed instruction
system.cpu.op_class_0::FloatCvt                     0      0.00%     54.68% # Class of committed instruction
system.cpu.op_class_0::FloatMult                    0      0.00%     54.68% # Class of committed instruction
system.cpu.op_class_0::FloatMultAcc                 0      0.00%     54.68% # Class of committed instruction
system.cpu.op_class_0::FloatDiv                     0      0.00%     54.68% # Class of committed instruction
system.cpu.op_class_0::FloatMisc                    0      0.00%     54.68% # Class of committed instruction
system.cpu.op_class_0::FloatSqrt                    0      0.00%     54.68% # Class of committed instruction
system.cpu.op_class_0::SimdAdd                    376      0.00%     54.68% # Class of committed instruction
system.cpu.op_class_0::SimdAddAcc                   0      0.00%     54.68% # Class of committed instruction
system.cpu.op_class_0::SimdAlu                    466      0.00%     54.68% # Class of committed instruction
system.cpu.op_class_0::SimdCmp                    378      0.00%     54.68% # Class of committed instruction
system.cpu.op_class_0::SimdCvt                      0      0.00%     54.68% # Class of committed instruction
system.cpu.op_class_0::SimdMisc                    53      0.00%     54.68% # Class of committed instruction
system.cpu.op_class_0::SimdMult                     0      0.00%     54.68% # Class of committed instruction
system.cpu.op_class_0::SimdMultAcc                  0      0.00%     54.68% # Class of committed instruction
system.cpu.op_class_0::SimdShift                    0      0.00%     54.68% # Class of committed instruction
system.cpu.op_class_0::SimdShiftAcc                 0      0.00%     54.68% # Class of committed instruction
system.cpu.op_class_0::SimdDiv                      0      0.00%     54.68% # Class of committed instruction
system.cpu.op_class_0::SimdSqrt                     0      0.00%     54.68% # Class of committed instruction
system.cpu.op_class_0::SimdFloatAdd            267609      0.26%     54.95% # Class of committed instruction
system.cpu.op_class_0::SimdFloatAlu                 0      0.00%     54.95% # Class of committed instruction
system.cpu.op_class_0::SimdFloatCmp            259630      0.26%     55.20% # Class of committed instruction
system.cpu.op_class_0::SimdFloatCvt            161456      0.16%     55.36% # Class of committed instruction
system.cpu.op_class_0::SimdFloatDiv             54308      0.05%     55.42% # Class of committed instruction
system.cpu.op_class_0::SimdFloatMisc           483616      0.48%     55.90% # Class of committed instruction
system.cpu.op_class_0::SimdFloatMult            33524      0.03%     55.93% # Class of committed instruction
system.cpu.op_class_0::SimdFloatMultAcc         11115      0.01%     55.94% # Class of committed instruction
system.cpu.op_class_0::SimdFloatSqrt                0      0.00%     55.94% # Class of committed instruction
system.cpu.op_class_0::SimdReduceAdd                0      0.00%     55.94% # Class of committed instruction
system.cpu.op_class_0::SimdReduceAlu                0      0.00%     55.94% # Class of committed instruction
system.cpu.op_class_0::SimdReduceCmp                0      0.00%     55.94% # Class of committed instruction
system.cpu.op_class_0::SimdFloatReduceAdd            0      0.00%     55.94% # Class of committed instruction
system.cpu.op_class_0::SimdFloatReduceCmp            0      0.00%     55.94% # Class of committed instruction
system.cpu.op_class_0::SimdAes                      0      0.00%     55.94% # Class of committed instruction
system.cpu.op_class_0::SimdAesMix                   0      0.00%     55.94% # Class of committed instruction
system.cpu.op_class_0::SimdSha1Hash                 0      0.00%     55.94% # Class of committed instruction
system.cpu.op_class_0::SimdSha1Hash2                0      0.00%     55.94% # Class of committed instruction
system.cpu.op_class_0::SimdSha256Hash               0      0.00%     55.94% # Class of committed instruction
system.cpu.op_class_0::SimdSha256Hash2              0      0.00%     55.94% # Class of committed instruction
system.cpu.op_class_0::SimdShaSigma2                0      0.00%     55.94% # Class of committed instruction
system.cpu.op_class_0::SimdShaSigma3                0      0.00%     55.94% # Class of committed instruction
system.cpu.op_class_0::SimdPredAlu                  0      0.00%     55.94% # Class of committed instruction
system.cpu.op_class_0::MemRead               38167367     37.75%     93.69% # Class of committed instruction
system.cpu.op_class_0::MemWrite               6379081      6.31%    100.00% # Class of committed instruction
system.cpu.op_class_0::FloatMemRead                 0      0.00%    100.00% # Class of committed instruction
system.cpu.op_class_0::FloatMemWrite                0      0.00%    100.00% # Class of committed instruction
system.cpu.op_class_0::IprAccess                    0      0.00%    100.00% # Class of committed instruction
system.cpu.op_class_0::InstPrefetch                 0      0.00%    100.00% # Class of committed instruction
system.cpu.op_class_0::total                101102842                       # Class of committed instruction
system.cpu.tickCycles                       117808164                       # Number of cycles that the object actually ticked
system.cpu.workload.numSyscalls                    32                       # Number of system calls
system.membus.snoop_filter.hit_multi_requests            0                       # Number of requests hitting in the snoop filter with multiple (>1) holders of the requested data.
system.membus.snoop_filter.hit_multi_snoops            0                       # Number of snoops hitting in the snoop filter with multiple (>1) holders of the requested data.
system.membus.snoop_filter.hit_single_requests          112                       # Number of requests hitting in the snoop filter with a single holder of the requested data.
system.membus.snoop_filter.hit_single_snoops            0                       # Number of snoops hitting in the snoop filter with a single holder of the requested data.
system.membus.snoop_filter.tot_requests          5614                       # Total number of requests made to the snoop filter.
system.membus.snoop_filter.tot_snoops               0                       # Total number of snoops made to the snoop filter.
system.tol2bus.snoop_filter.hit_multi_requests         5593                       # Number of requests hitting in the snoop filter with multiple (>1) holders of the requested data.
system.tol2bus.snoop_filter.hit_multi_snoops            0                       # Number of snoops hitting in the snoop filter with multiple (>1) holders of the requested data.
system.tol2bus.snoop_filter.hit_single_requests       754700                       # Number of requests hitting in the snoop filter with a single holder of the requested data.
system.tol2bus.snoop_filter.hit_single_snoops          150                       # Number of snoops hitting in the snoop filter with a single holder of the requested data.
system.tol2bus.snoop_filter.tot_requests      1510344                       # Total number of requests made to the snoop filter.
system.tol2bus.snoop_filter.tot_snoops            150                       # Total number of snoops made to the snoop filter.
system.clk_domain.clock                          1000                       # Clock period in ticks
system.cpu.branchPred.lookups                 6503922                       # Number of BP lookups
system.cpu.branchPred.condPredicted           5095981                       # Number of conditional branches predicted
system.cpu.branchPred.condIncorrect            349138                       # Number of conditional branches incorrect
system.cpu.branchPred.BTBLookups              4086266                       # Number of BTB lookups
system.cpu.branchPred.BTBHits                 4078882                       # Number of BTB hits
system.cpu.branchPred.BTBHitPct             99.819297                       # BTB Hit Percentage
system.cpu.branchPred.RASUsed                  312653                       # Number of times the RAS was used to get a target.
system.cpu.branchPred.RASIncorrect                  4                       # Number of incorrect RAS predictions.
system.cpu.branchPred.indirectLookups          675697                       # Number of indirect predictor lookups.
system.cpu.branchPred.indirectHits             102892                       # Number of indirect target hits.
system.cpu.branchPred.indirectMisses           572805                       # Number of indirect misses.
system.cpu.branchPred.indirectMispredicted        37435                       # Number of mispredicted indirect branches.
system.cpu.dcache.demand_hits::.cpu.data     43075106                       # number of demand (read+write) hits
system.cpu.dcache.demand_hits::total         43075106                       # number of demand (read+write) hits
system.cpu.dcache.overall_hits::.cpu.data     43083514                       # number of overall hits
system.cpu.dcache.overall_hits::total        43083514                       # number of overall hits
system.cpu.dcache.demand_misses::.cpu.data       784805                       # number of demand (read+write) misses
system.cpu.dcache.demand_misses::total         784805                       # number of demand (read+write) misses
system.cpu.dcache.overall_misses::.cpu.data       785146                       # number of overall misses
system.cpu.dcache.overall_misses::total        785146                       # number of overall misses
system.cpu.dcache.demand_miss_latency::.cpu.data  26939507000                       # number of demand (read+write) miss cycles
system.cpu.dcache.demand_miss_latency::total  26939507000                       # number of demand (read+write) miss cycles
system.cpu.dcache.overall_miss_latency::.cpu.data  26939507000                       # number of overall miss cycles
system.cpu.dcache.overall_miss_latency::total  26939507000                       # number of overall miss cycles
system.cpu.dcache.demand_accesses::.cpu.data     43859911                       # number of demand (read+write) accesses
system.cpu.dcache.demand_accesses::total     43859911                       # number of demand (read+write) accesses
system.cpu.dcache.overall_accesses::.cpu.data     43868660                       # number of overall (read+write) accesses
system.cpu.dcache.overall_accesses::total     43868660                       # number of overall (read+write) accesses
system.cpu.dcache.demand_miss_rate::.cpu.data     0.017893                       # miss rate for demand accesses
system.cpu.dcache.demand_miss_rate::total     0.017893                       # miss rate for demand accesses
system.cpu.dcache.overall_miss_rate::.cpu.data     0.017898                       # miss rate for overall accesses
system.cpu.dcache.overall_miss_rate::total     0.017898                       # miss rate for overall accesses
system.cpu.dcache.demand_avg_miss_latency::.cpu.data 34326.370245                       # average overall miss latency
system.cpu.dcache.demand_avg_miss_latency::total 34326.370245                       # average overall miss latency
system.cpu.dcache.overall_avg_miss_latency::.cpu.data 34311.461817                       # average overall miss latency
system.cpu.dcache.overall_avg_miss_latency::total 34311.461817                       # average overall miss latency
system.cpu.dcache.blocked_cycles::no_mshrs           62                       # number of cycles access was blocked
system.cpu.dcache.blocked_cycles::no_targets            0                       # number of cycles access was blocked
system.cpu.dcache.blocked::no_mshrs                 1                       # number of cycles access was blocked
system.cpu.dcache.blocked::no_targets               0                       # number of cycles access was blocked
system.cpu.dcache.avg_blocked_cycles::no_mshrs           62                       # average number of cycles each access was blocked
system.cpu.dcache.avg_blocked_cycles::no_targets          nan                       # average number of cycles each access was blocked
system.cpu.dcache.writebacks::.writebacks       738601                       # number of writebacks
system.cpu.dcache.writebacks::total            738601                       # number of writebacks
system.cpu.dcache.demand_mshr_hits::.cpu.data        36511                       # number of demand (read+write) MSHR hits
system.cpu.dcache.demand_mshr_hits::total        36511                       # number of demand (read+write) MSHR hits
system.cpu.dcache.overall_mshr_hits::.cpu.data        36511                       # number of overall MSHR hits
system.cpu.dcache.overall_mshr_hits::total        36511                       # number of overall MSHR hits
system.cpu.dcache.demand_mshr_misses::.cpu.data       748294                       # number of demand (read+write) MSHR misses
system.cpu.dcache.demand_mshr_misses::total       748294                       # number of demand (read+write) MSHR misses
system.cpu.dcache.overall_mshr_misses::.cpu.data       748615                       # number of overall MSHR misses
system.cpu.dcache.overall_mshr_misses::total       748615                       # number of overall MSHR misses
system.cpu.dcache.demand_mshr_miss_latency::.cpu.data  24419632000                       # number of demand (read+write) MSHR miss cycles
system.cpu.dcache.demand_mshr_miss_latency::total  24419632000                       # number of demand (read+write) MSHR miss cycles
system.cpu.dcache.overall_mshr_miss_latency::.cpu.data  24435549000                       # number of overall MSHR miss cycles
system.cpu.dcache.overall_mshr_miss_latency::total  24435549000                       # number of overall MSHR miss cycles
system.cpu.dcache.demand_mshr_miss_rate::.cpu.data     0.017061                       # mshr miss rate for demand accesses
system.cpu.dcache.demand_mshr_miss_rate::total     0.017061                       # mshr miss rate for demand accesses
system.cpu.dcache.overall_mshr_miss_rate::.cpu.data     0.017065                       # mshr miss rate for overall accesses
system.cpu.dcache.overall_mshr_miss_rate::total     0.017065                       # mshr miss rate for overall accesses
system.cpu.dcache.demand_avg_mshr_miss_latency::.cpu.data 32633.740214                       # average overall mshr miss latency
system.cpu.dcache.demand_avg_mshr_miss_latency::total 32633.740214                       # average overall mshr miss latency
system.cpu.dcache.overall_avg_mshr_miss_latency::.cpu.data 32641.009063                       # average overall mshr miss latency
system.cpu.dcache.overall_avg_mshr_miss_latency::total 32641.009063                       # average overall mshr miss latency
system.cpu.dcache.replacements                 748490                       # number of replacements
system.cpu.dcache.ReadReq_hits::.cpu.data     36929667                       # number of ReadReq hits
system.cpu.dcache.ReadReq_hits::total        36929667                       # number of ReadReq hits
system.cpu.dcache.ReadReq_misses::.cpu.data       609412                       # number of ReadReq misses
system.cpu.dcache.ReadReq_misses::total        609412                       # number of ReadReq misses
system.cpu.dcache.ReadReq_miss_latency::.cpu.data  21021834000                       # number of ReadReq miss cycles
system.cpu.dcache.ReadReq_miss_latency::total  21021834000                       # number of ReadReq miss cycles
system.cpu.dcache.ReadReq_accesses::.cpu.data     37539079                       # number of ReadReq accesses(hits+misses)
system.cpu.dcache.ReadReq_accesses::total     37539079                       # number of ReadReq accesses(hits+misses)
system.cpu.dcache.ReadReq_miss_rate::.cpu.data     0.016234                       # miss rate for ReadReq accesses
system.cpu.dcache.ReadReq_miss_rate::total     0.016234                       # miss rate for ReadReq accesses
system.cpu.dcache.ReadReq_avg_miss_latency::.cpu.data 34495.274133                       # average ReadReq miss latency
system.cpu.dcache.ReadReq_avg_miss_latency::total 34495.274133                       # average ReadReq miss latency
system.cpu.dcache.ReadReq_mshr_hits::.cpu.data        20078                       # number of ReadReq MSHR hits
system.cpu.dcache.ReadReq_mshr_hits::total        20078                       # number of ReadReq MSHR hits
system.cpu.dcache.ReadReq_mshr_misses::.cpu.data       589334                       # number of ReadReq MSHR misses
system.cpu.dcache.ReadReq_mshr_misses::total       589334                       # number of ReadReq MSHR misses
system.cpu.dcache.ReadReq_mshr_miss_latency::.cpu.data  19378548000                       # number of ReadReq MSHR miss cycles
system.cpu.dcache.ReadReq_mshr_miss_latency::total  19378548000                       # number of ReadReq MSHR miss cycles
system.cpu.dcache.ReadReq_mshr_miss_rate::.cpu.data     0.015699                       # mshr miss rate for ReadReq accesses
system.cpu.dcache.ReadReq_mshr_miss_rate::total     0.015699                       # mshr miss rate for ReadReq accesses
system.cpu.dcache.ReadReq_avg_mshr_miss_latency::.cpu.data 32882.114387                       # average ReadReq mshr miss latency
system.cpu.dcache.ReadReq_avg_mshr_miss_latency::total 32882.114387                       # average ReadReq mshr miss latency
system.cpu.dcache.WriteReq_hits::.cpu.data      6145439                       # number of WriteReq hits
system.cpu.dcache.WriteReq_hits::total        6145439                       # number of WriteReq hits
system.cpu.dcache.WriteReq_misses::.cpu.data       175393                       # number of WriteReq misses
system.cpu.dcache.WriteReq_misses::total       175393                       # number of WriteReq misses
system.cpu.dcache.WriteReq_miss_latency::.cpu.data   5917673000                       # number of WriteReq miss cycles
system.cpu.dcache.WriteReq_miss_latency::total   5917673000                       # number of WriteReq miss cycles
system.cpu.dcache.WriteReq_accesses::.cpu.data      6320832                       # number of WriteReq accesses(hits+misses)
system.cpu.dcache.WriteReq_accesses::total      6320832                       # number of WriteReq accesses(hits+misses)
system.cpu.dcache.WriteReq_miss_rate::.cpu.data     0.027748                       # miss rate for WriteReq accesses
system.cpu.dcache.WriteReq_miss_rate::total     0.027748                       # miss rate for WriteReq accesses
system.cpu.dcache.WriteReq_avg_miss_latency::.cpu.data 33739.504997                       # average WriteReq miss latency
system.cpu.dcache.WriteReq_avg_miss_latency::total 33739.504997                       # average WriteReq miss latency
system.cpu.dcache.WriteReq_mshr_hits::.cpu.data        16433                       # number of WriteReq MSHR hits
system.cpu.dcache.WriteReq_mshr_hits::total        16433                       # number of WriteReq MSHR hits
system.cpu.dcache.WriteReq_mshr_misses::.cpu.data       158960                       # number of WriteReq MSHR misses
system.cpu.dcache.WriteReq_mshr_misses::total       158960                       # number of WriteReq MSHR misses
system.cpu.dcache.WriteReq_mshr_miss_latency::.cpu.data   5041084000                       # number of WriteReq MSHR miss cycles
system.cpu.dcache.WriteReq_mshr_miss_latency::total   5041084000                       # number of WriteReq MSHR miss cycles
system.cpu.dcache.WriteReq_mshr_miss_rate::.cpu.data     0.025149                       # mshr miss rate for WriteReq accesses
system.cpu.dcache.WriteReq_mshr_miss_rate::total     0.025149                       # mshr miss rate for WriteReq accesses
system.cpu.dcache.WriteReq_avg_mshr_miss_latency::.cpu.data 31712.908908                       # average WriteReq mshr miss latency
system.cpu.dcache.WriteReq_avg_mshr_miss_latency::total 31712.908908                       # average WriteReq mshr miss latency
system.cpu.dcache.SoftPFReq_hits::.cpu.data         8408                       # number of SoftPFReq hits
system.cpu.dcache.SoftPFReq_hits::total          8408                       # number of SoftPFReq hits
system.cpu.dcache.SoftPFReq_misses::.cpu.data          341                       # number of SoftPFReq misses
system.cpu.dcache.SoftPFReq_misses::total          341                       # number of SoftPFReq misses
system.cpu.dcache.SoftPFReq_accesses::.cpu.data         8749                       # number of SoftPFReq accesses(hits+misses)
system.cpu.dcache.SoftPFReq_accesses::total         8749                       # number of SoftPFReq accesses(hits+misses)
system.cpu.dcache.SoftPFReq_miss_rate::.cpu.data     0.038976                       # miss rate for SoftPFReq accesses
system.cpu.dcache.SoftPFReq_miss_rate::total     0.038976                       # miss rate for SoftPFReq accesses
system.cpu.dcache.SoftPFReq_mshr_misses::.cpu.data          321                       # number of SoftPFReq MSHR misses
system.cpu.dcache.SoftPFReq_mshr_misses::total          321                       # number of SoftPFReq MSHR misses
system.cpu.dcache.SoftPFReq_mshr_miss_latency::.cpu.data     15917000                       # number of SoftPFReq MSHR miss cycles
system.cpu.dcache.SoftPFReq_mshr_miss_latency::total     15917000                       # number of SoftPFReq MSHR miss cycles
system.cpu.dcache.SoftPFReq_mshr_miss_rate::.cpu.data     0.036690                       # mshr miss rate for SoftPFReq accesses
system.cpu.dcache.SoftPFReq_mshr_miss_rate::total     0.036690                       # mshr miss rate for SoftPFReq accesses
system.cpu.dcache.SoftPFReq_avg_mshr_miss_latency::.cpu.data 49585.669782                       # average SoftPFReq mshr miss latency
system.cpu.dcache.SoftPFReq_avg_mshr_miss_latency::total 49585.669782                       # average SoftPFReq mshr miss latency
system.cpu.dcache.LoadLockedReq_hits::.cpu.data          163                       # number of LoadLockedReq hits
system.cpu.dcache.LoadLockedReq_hits::total          163                       # number of LoadLockedReq hits
system.cpu.dcache.LoadLockedReq_misses::.cpu.data            3                       # number of LoadLockedReq misses
system.cpu.dcache.LoadLockedReq_misses::total            3                       # number of LoadLockedReq misses
system.cpu.dcache.LoadLockedReq_miss_latency::.cpu.data       193000                       # number of LoadLockedReq miss cycles
system.cpu.dcache.LoadLockedReq_miss_latency::total       193000                       # number of LoadLockedReq miss cycles
system.cpu.dcache.LoadLockedReq_accesses::.cpu.data          166                       # number of LoadLockedReq accesses(hits+misses)
system.cpu.dcache.LoadLockedReq_accesses::total          166                       # number of LoadLockedReq accesses(hits+misses)
system.cpu.dcache.LoadLockedReq_miss_rate::.cpu.data     0.018072                       # miss rate for LoadLockedReq accesses
system.cpu.dcache.LoadLockedReq_miss_rate::total     0.018072                       # miss rate for LoadLockedReq accesses
system.cpu.dcache.LoadLockedReq_avg_miss_latency::.cpu.data 64333.333333                       # average LoadLockedReq miss latency
system.cpu.dcache.LoadLockedReq_avg_miss_latency::total 64333.333333                       # average LoadLockedReq miss latency
system.cpu.dcache.LoadLockedReq_mshr_misses::.cpu.data            3                       # number of LoadLockedReq MSHR misses
system.cpu.dcache.LoadLockedReq_mshr_misses::total            3                       # number of LoadLockedReq MSHR misses
system.cpu.dcache.LoadLockedReq_mshr_miss_latency::.cpu.data       187000                       # number of LoadLockedReq MSHR miss cycles
system.cpu.dcache.LoadLockedReq_mshr_miss_latency::total       187000                       # number of LoadLockedReq MSHR miss cycles
system.cpu.dcache.LoadLockedReq_mshr_miss_rate::.cpu.data     0.018072                       # mshr miss rate for LoadLockedReq accesses
system.cpu.dcache.LoadLockedReq_mshr_miss_rate::total     0.018072                       # mshr miss rate for LoadLockedReq accesses
system.cpu.dcache.LoadLockedReq_avg_mshr_miss_latency::.cpu.data 62333.333333                       # average LoadLockedReq mshr miss latency
system.cpu.dcache.LoadLockedReq_avg_mshr_miss_latency::total 62333.333333                       # average LoadLockedReq mshr miss latency
system.cpu.dcache.StoreCondReq_hits::.cpu.data          166                       # number of StoreCondReq hits
system.cpu.dcache.StoreCondReq_hits::total          166                       # number of StoreCondReq hits
system.cpu.dcache.StoreCondReq_accesses::.cpu.data          166                       # number of StoreCondReq accesses(hits+misses)
system.cpu.dcache.StoreCondReq_accesses::total          166                       # number of StoreCondReq accesses(hits+misses)
system.cpu.dcache.power_state.pwrStateResidencyTicks::UNDEFINED 138928501000                       # Cumulative time (in ticks) in various power states
system.cpu.dcache.tags.tagsinuse           127.948246                       # Cycle average of tags in use
system.cpu.dcache.tags.total_refs            43832461                       # Total number of references to valid blocks.
system.cpu.dcache.tags.sampled_refs            748618                       # Sample count of references to valid blocks.
system.cpu.dcache.tags.avg_refs             58.551172                       # Average number of references to valid blocks.
system.cpu.dcache.tags.warmup_cycle            223000                       # Cycle when the warmup percentage was hit.
system.cpu.dcache.tags.occ_blocks::.cpu.data   127.948246                       # Average occupied blocks per requestor
system.cpu.dcache.tags.occ_percent::.cpu.data     0.999596                       # Average percentage of cache occupancy
system.cpu.dcache.tags.occ_percent::total     0.999596                       # Average percentage of cache occupancy
system.cpu.dcache.tags.occ_task_id_blocks::1024          128                       # Occupied blocks per task id
system.cpu.dcache.tags.age_task_id_blocks_1024::0           10                       # Occupied blocks per task id
system.cpu.dcache.tags.age_task_id_blocks_1024::1           56                       # Occupied blocks per task id
system.cpu.dcache.tags.age_task_id_blocks_1024::2           62                       # Occupied blocks per task id
system.cpu.dcache.tags.occ_task_id_percent::1024            1                       # Percentage of cache occupancy per task id
system.cpu.dcache.tags.tag_accesses          44617610                       # Number of tag accesses
system.cpu.dcache.tags.data_accesses         44617610                       # Number of data accesses
system.cpu.dcache.tags.power_state.pwrStateResidencyTicks::UNDEFINED 138928501000                       # Cumulative time (in ticks) in various power states
system.cpu.dtb.instHits                             0                       # ITB inst hits
system.cpu.dtb.instMisses                           0                       # ITB inst misses
system.cpu.dtb.readHits                             0                       # DTB read hits
system.cpu.dtb.readMisses                           0                       # DTB read misses
system.cpu.dtb.writeHits                            0                       # DTB write hits
system.cpu.dtb.writeMisses                          0                       # DTB write misses
system.cpu.dtb.inserts                              0                       # Number of times an entry is inserted into the TLB
system.cpu.dtb.flushTlb                             0                       # Number of times complete TLB was flushed
system.cpu.dtb.flushTlbMva                          0                       # Number of times TLB was flushed by MVA
system.cpu.dtb.flushTlbMvaAsid                      0                       # Number of times TLB was flushed by MVA & ASID
system.cpu.dtb.flushTlbAsid                         0                       # Number of times TLB was flushed by ASID
system.cpu.dtb.flushedEntries                       0                       # Number of entries that have been flushed from TLB
system.cpu.dtb.alignFaults                          0                       # Number of TLB faults due to alignment restrictions
system.cpu.dtb.prefetchFaults                       0                       # Number of TLB faults due to prefetch
system.cpu.dtb.domainFaults                         0                       # Number of TLB faults due to domain restrictions
system.cpu.dtb.permsFaults                          0                       # Number of TLB faults due to permissions restrictions
system.cpu.dtb.readAccesses                         0                       # DTB read accesses
system.cpu.dtb.writeAccesses                        0                       # DTB write accesses
system.cpu.dtb.instAccesses                         0                       # ITB inst accesses
system.cpu.dtb.hits                                 0                       # Total TLB (inst and data) hits
system.cpu.dtb.misses                               0                       # Total TLB (inst and data) misses
system.cpu.dtb.accesses                             0                       # Total TLB (inst and data) accesses
system.cpu.dtb.stage2_mmu.stage2_tlb.instHits            0                       # ITB inst hits
system.cpu.dtb.stage2_mmu.stage2_tlb.instMisses            0                       # ITB inst misses
system.cpu.dtb.stage2_mmu.stage2_tlb.readHits            0                       # DTB read hits
system.cpu.dtb.stage2_mmu.stage2_tlb.readMisses            0                       # DTB read misses
system.cpu.dtb.stage2_mmu.stage2_tlb.writeHits            0                       # DTB write hits
system.cpu.dtb.stage2_mmu.stage2_tlb.writeMisses            0                       # DTB write misses
system.cpu.dtb.stage2_mmu.stage2_tlb.inserts            0                       # Number of times an entry is inserted into the TLB
system.cpu.dtb.stage2_mmu.stage2_tlb.flushTlb            0                       # Number of times complete TLB was flushed
system.cpu.dtb.stage2_mmu.stage2_tlb.flushTlbMva            0                       # Number of times TLB was flushed by MVA
system.cpu.dtb.stage2_mmu.stage2_tlb.flushTlbMvaAsid            0                       # Number of times TLB was flushed by MVA & ASID
system.cpu.dtb.stage2_mmu.stage2_tlb.flushTlbAsid            0                       # Number of times TLB was flushed by ASID
system.cpu.dtb.stage2_mmu.stage2_tlb.flushedEntries            0                       # Number of entries that have been flushed from TLB
system.cpu.dtb.stage2_mmu.stage2_tlb.alignFaults            0                       # Number of TLB faults due to alignment restrictions
system.cpu.dtb.stage2_mmu.stage2_tlb.prefetchFaults            0                       # Number of TLB faults due to prefetch
system.cpu.dtb.stage2_mmu.stage2_tlb.domainFaults            0                       # Number of TLB faults due to domain restrictions
system.cpu.dtb.stage2_mmu.stage2_tlb.permsFaults            0                       # Number of TLB faults due to permissions restrictions
system.cpu.dtb.stage2_mmu.stage2_tlb.readAccesses            0                       # DTB read accesses
system.cpu.dtb.stage2_mmu.stage2_tlb.writeAccesses            0                       # DTB write accesses
system.cpu.dtb.stage2_mmu.stage2_tlb.instAccesses            0                       # ITB inst accesses
system.cpu.dtb.stage2_mmu.stage2_tlb.hits            0                       # Total TLB (inst and data) hits
system.cpu.dtb.stage2_mmu.stage2_tlb.misses            0                       # Total TLB (inst and data) misses
system.cpu.dtb.stage2_mmu.stage2_tlb.accesses            0                       # Total TLB (inst and data) accesses
system.cpu.dtb.stage2_mmu.stage2_tlb.walker.walks            0                       # Table walker walks requested
system.cpu.dtb.stage2_mmu.stage2_tlb.walker.requestOrigin_Requested::Data            0                       # Table walker requests started/completed, data/inst
system.cpu.dtb.stage2_mmu.stage2_tlb.walker.requestOrigin_Requested::Inst            0                       # Table walker requests started/completed, data/inst
system.cpu.dtb.stage2_mmu.stage2_tlb.walker.requestOrigin_Requested::total            0                       # Table walker requests started/completed, data/inst
system.cpu.dtb.stage2_mmu.stage2_tlb.walker.requestOrigin_Completed::Data            0                       # Table walker requests started/completed, data/inst
system.cpu.dtb.stage2_mmu.stage2_tlb.walker.requestOrigin_Completed::Inst            0                       # Table walker requests started/completed, data/inst
system.cpu.dtb.stage2_mmu.stage2_tlb.walker.requestOrigin_Completed::total            0                       # Table walker requests started/completed, data/inst
system.cpu.dtb.stage2_mmu.stage2_tlb.walker.requestOrigin::total            0                       # Table walker requests started/completed, data/inst
system.cpu.dtb.stage2_mmu.stage2_tlb.walker.power_state.pwrStateResidencyTicks::UNDEFINED 138928501000                       # Cumulative time (in ticks) in various power states
system.cpu.dtb.walker.walks                         0                       # Table walker walks requested
system.cpu.dtb.walker.requestOrigin_Requested::Data            0                       # Table walker requests started/completed, data/inst
system.cpu.dtb.walker.requestOrigin_Requested::Inst            0                       # Table walker requests started/completed, data/inst
system.cpu.dtb.walker.requestOrigin_Requested::total            0                       # Table walker requests started/completed, data/inst
system.cpu.dtb.walker.requestOrigin_Completed::Data            0                       # Table walker requests started/completed, data/inst
system.cpu.dtb.walker.requestOrigin_Completed::Inst            0                       # Table walker requests started/completed, data/inst
system.cpu.dtb.walker.requestOrigin_Completed::total            0                       # Table walker requests started/completed, data/inst
system.cpu.dtb.walker.requestOrigin::total            0                       # Table walker requests started/completed, data/inst
system.cpu.dtb.walker.power_state.pwrStateResidencyTicks::UNDEFINED 138928501000                       # Cumulative time (in ticks) in various power states
system.cpu.fetch2.intInstructions            48874278                       # Number of integer instructions successfully decoded
system.cpu.fetch2.fpInstructions                    0                       # Number of floating point instructions successfully decoded
system.cpu.fetch2.vecInstructions                   0                       # Number of SIMD instructions successfully decoded
system.cpu.fetch2.loadInstructions           40559402                       # Number of memory load instructions successfully decoded
system.cpu.fetch2.storeInstructions           6266507                       # Number of memory store instructions successfully decoded
system.cpu.fetch2.amoInstructions                   0                       # Number of memory atomic instructions successfully decoded
system.cpu.icache.demand_hits::.cpu.inst     17289406                       # number of demand (read+write) hits
system.cpu.icache.demand_hits::total         17289406                       # number of demand (read+write) hits
system.cpu.icache.overall_hits::.cpu.inst     17289406                       # number of overall hits
system.cpu.icache.overall_hits::total        17289406                       # number of overall hits
system.cpu.icache.demand_misses::.cpu.inst         7026                       # number of demand (read+write) misses
system.cpu.icache.demand_misses::total           7026                       # number of demand (read+write) misses
system.cpu.icache.overall_misses::.cpu.inst         7026                       # number of overall misses
system.cpu.icache.overall_misses::total          7026                       # number of overall misses
system.cpu.icache.demand_miss_latency::.cpu.inst    282582000                       # number of demand (read+write) miss cycles
system.cpu.icache.demand_miss_latency::total    282582000                       # number of demand (read+write) miss cycles
system.cpu.icache.overall_miss_latency::.cpu.inst    282582000                       # number of overall miss cycles
system.cpu.icache.overall_miss_latency::total    282582000                       # number of overall miss cycles
system.cpu.icache.demand_accesses::.cpu.inst     17296432                       # number of demand (read+write) accesses
system.cpu.icache.demand_accesses::total     17296432                       # number of demand (read+write) accesses
system.cpu.icache.overall_accesses::.cpu.inst     17296432                       # number of overall (read+write) accesses
system.cpu.icache.overall_accesses::total     17296432                       # number of overall (read+write) accesses
system.cpu.icache.demand_miss_rate::.cpu.inst     0.000406                       # miss rate for demand accesses
system.cpu.icache.demand_miss_rate::total     0.000406                       # miss rate for demand accesses
system.cpu.icache.overall_miss_rate::.cpu.inst     0.000406                       # miss rate for overall accesses
system.cpu.icache.overall_miss_rate::total     0.000406                       # miss rate for overall accesses
system.cpu.icache.demand_avg_miss_latency::.cpu.inst 40219.470538                       # average overall miss latency
system.cpu.icache.demand_avg_miss_latency::total 40219.470538                       # average overall miss latency
system.cpu.icache.overall_avg_miss_latency::.cpu.inst 40219.470538                       # average overall miss latency
system.cpu.icache.overall_avg_miss_latency::total 40219.470538                       # average overall miss latency
system.cpu.icache.blocked_cycles::no_mshrs            0                       # number of cycles access was blocked
system.cpu.icache.blocked_cycles::no_targets            0                       # number of cycles access was blocked
system.cpu.icache.blocked::no_mshrs                 0                       # number of cycles access was blocked
system.cpu.icache.blocked::no_targets               0                       # number of cycles access was blocked
system.cpu.icache.avg_blocked_cycles::no_mshrs          nan                       # average number of cycles each access was blocked
system.cpu.icache.avg_blocked_cycles::no_targets          nan                       # average number of cycles each access was blocked
system.cpu.icache.writebacks::.writebacks         6210                       # number of writebacks
system.cpu.icache.writebacks::total              6210                       # number of writebacks
system.cpu.icache.demand_mshr_misses::.cpu.inst         7026                       # number of demand (read+write) MSHR misses
system.cpu.icache.demand_mshr_misses::total         7026                       # number of demand (read+write) MSHR misses
system.cpu.icache.overall_mshr_misses::.cpu.inst         7026                       # number of overall MSHR misses
system.cpu.icache.overall_mshr_misses::total         7026                       # number of overall MSHR misses
system.cpu.icache.demand_mshr_miss_latency::.cpu.inst    268530000                       # number of demand (read+write) MSHR miss cycles
system.cpu.icache.demand_mshr_miss_latency::total    268530000                       # number of demand (read+write) MSHR miss cycles
system.cpu.icache.overall_mshr_miss_latency::.cpu.inst    268530000                       # number of overall MSHR miss cycles
system.cpu.icache.overall_mshr_miss_latency::total    268530000                       # number of overall MSHR miss cycles
system.cpu.icache.demand_mshr_miss_rate::.cpu.inst     0.000406                       # mshr miss rate for demand accesses
system.cpu.icache.demand_mshr_miss_rate::total     0.000406                       # mshr miss rate for demand accesses
system.cpu.icache.overall_mshr_miss_rate::.cpu.inst     0.000406                       # mshr miss rate for overall accesses
system.cpu.icache.overall_mshr_miss_rate::total     0.000406                       # mshr miss rate for overall accesses
system.cpu.icache.demand_avg_mshr_miss_latency::.cpu.inst 38219.470538                       # average overall mshr miss latency
system.cpu.icache.demand_avg_mshr_miss_latency::total 38219.470538                       # average overall mshr miss latency
system.cpu.icache.overall_avg_mshr_miss_latency::.cpu.inst 38219.470538                       # average overall mshr miss latency
system.cpu.icache.overall_avg_mshr_miss_latency::total 38219.470538                       # average overall mshr miss latency
system.cpu.icache.replacements                   6210                       # number of replacements
system.cpu.icache.ReadReq_hits::.cpu.inst     17289406                       # number of ReadReq hits
system.cpu.icache.ReadReq_hits::total        17289406                       # number of ReadReq hits
system.cpu.icache.ReadReq_misses::.cpu.inst         7026                       # number of ReadReq misses
system.cpu.icache.ReadReq_misses::total          7026                       # number of ReadReq misses
system.cpu.icache.ReadReq_miss_latency::.cpu.inst    282582000                       # number of ReadReq miss cycles
system.cpu.icache.ReadReq_miss_latency::total    282582000                       # number of ReadReq miss cycles
system.cpu.icache.ReadReq_accesses::.cpu.inst     17296432                       # number of ReadReq accesses(hits+misses)
system.cpu.icache.ReadReq_accesses::total     17296432                       # number of ReadReq accesses(hits+misses)
system.cpu.icache.ReadReq_miss_rate::.cpu.inst     0.000406                       # miss rate for ReadReq accesses
system.cpu.icache.ReadReq_miss_rate::total     0.000406                       # miss rate for ReadReq accesses
system.cpu.icache.ReadReq_avg_miss_latency::.cpu.inst 40219.470538                       # average ReadReq miss latency
system.cpu.icache.ReadReq_avg_miss_latency::total 40219.470538                       # average ReadReq miss latency
system.cpu.icache.ReadReq_mshr_misses::.cpu.inst         7026                       # number of ReadReq MSHR misses
system.cpu.icache.ReadReq_mshr_misses::total         7026                       # number of ReadReq MSHR misses
system.cpu.icache.ReadReq_mshr_miss_latency::.cpu.inst    268530000                       # number of ReadReq MSHR miss cycles
system.cpu.icache.ReadReq_mshr_miss_latency::total    268530000                       # number of ReadReq MSHR miss cycles
system.cpu.icache.ReadReq_mshr_miss_rate::.cpu.inst     0.000406                       # mshr miss rate for ReadReq accesses
system.cpu.icache.ReadReq_mshr_miss_rate::total     0.000406                       # mshr miss rate for ReadReq accesses
system.cpu.icache.ReadReq_avg_mshr_miss_latency::.cpu.inst 38219.470538                       # average ReadReq mshr miss latency
system.cpu.icache.ReadReq_avg_mshr_miss_latency::total 38219.470538                       # average ReadReq mshr miss latency
system.cpu.icache.power_state.pwrStateResidencyTicks::UNDEFINED 138928501000                       # Cumulative time (in ticks) in various power states
system.cpu.icache.tags.tagsinuse           813.618443                       # Cycle average of tags in use
system.cpu.icache.tags.total_refs            17296432                       # Total number of references to valid blocks.
system.cpu.icache.tags.sampled_refs              7026                       # Sample count of references to valid blocks.
system.cpu.icache.tags.avg_refs           2461.775121                       # Average number of references to valid blocks.
system.cpu.icache.tags.warmup_cycle            108000                       # Cycle when the warmup percentage was hit.
system.cpu.icache.tags.occ_blocks::.cpu.inst   813.618443                       # Average occupied blocks per requestor
system.cpu.icache.tags.occ_percent::.cpu.inst     0.794549                       # Average percentage of cache occupancy
system.cpu.icache.tags.occ_percent::total     0.794549                       # Average percentage of cache occupancy
system.cpu.icache.tags.occ_task_id_blocks::1024          816                       # Occupied blocks per task id
system.cpu.icache.tags.age_task_id_blocks_1024::2            2                       # Occupied blocks per task id
system.cpu.icache.tags.age_task_id_blocks_1024::3            2                       # Occupied blocks per task id
system.cpu.icache.tags.age_task_id_blocks_1024::4          812                       # Occupied blocks per task id
system.cpu.icache.tags.occ_task_id_percent::1024     0.796875                       # Percentage of cache occupancy per task id
system.cpu.icache.tags.tag_accesses          17303458                       # Number of tag accesses
system.cpu.icache.tags.data_accesses         17303458                       # Number of data accesses
system.cpu.icache.tags.power_state.pwrStateResidencyTicks::UNDEFINED 138928501000                       # Cumulative time (in ticks) in various power states
system.cpu.itb.instHits                             0                       # ITB inst hits
system.cpu.itb.instMisses                           0                       # ITB inst misses
system.cpu.itb.readHits                             0                       # DTB read hits
system.cpu.itb.readMisses                           0                       # DTB read misses
system.cpu.itb.writeHits                            0                       # DTB write hits
system.cpu.itb.writeMisses                          0                       # DTB write misses
system.cpu.itb.inserts                              0                       # Number of times an entry is inserted into the TLB
system.cpu.itb.flushTlb                             0                       # Number of times complete TLB was flushed
system.cpu.itb.flushTlbMva                          0                       # Number of times TLB was flushed by MVA
system.cpu.itb.flushTlbMvaAsid                      0                       # Number of times TLB was flushed by MVA & ASID
system.cpu.itb.flushTlbAsid                         0                       # Number of times TLB was flushed by ASID
system.cpu.itb.flushedEntries                       0                       # Number of entries that have been flushed from TLB
system.cpu.itb.alignFaults                          0                       # Number of TLB faults due to alignment restrictions
system.cpu.itb.prefetchFaults                       0                       # Number of TLB faults due to prefetch
system.cpu.itb.domainFaults                         0                       # Number of TLB faults due to domain restrictions
system.cpu.itb.permsFaults                          0                       # Number of TLB faults due to permissions restrictions
system.cpu.itb.readAccesses                         0                       # DTB read accesses
system.cpu.itb.writeAccesses                        0                       # DTB write accesses
system.cpu.itb.instAccesses                         0                       # ITB inst accesses
system.cpu.itb.hits                                 0                       # Total TLB (inst and data) hits
system.cpu.itb.misses                               0                       # Total TLB (inst and data) misses
system.cpu.itb.accesses                             0                       # Total TLB (inst and data) accesses
system.cpu.itb.stage2_mmu.stage2_tlb.instHits            0                       # ITB inst hits
system.cpu.itb.stage2_mmu.stage2_tlb.instMisses            0                       # ITB inst misses
system.cpu.itb.stage2_mmu.stage2_tlb.readHits            0                       # DTB read hits
system.cpu.itb.stage2_mmu.stage2_tlb.readMisses            0                       # DTB read misses
system.cpu.itb.stage2_mmu.stage2_tlb.writeHits            0                       # DTB write hits
system.cpu.itb.stage2_mmu.stage2_tlb.writeMisses            0                       # DTB write misses
system.cpu.itb.stage2_mmu.stage2_tlb.inserts            0                       # Number of times an entry is inserted into the TLB
system.cpu.itb.stage2_mmu.stage2_tlb.flushTlb            0                       # Number of times complete TLB was flushed
system.cpu.itb.stage2_mmu.stage2_tlb.flushTlbMva            0                       # Number of times TLB was flushed by MVA
system.cpu.itb.stage2_mmu.stage2_tlb.flushTlbMvaAsid            0                       # Number of times TLB was flushed by MVA & ASID
system.cpu.itb.stage2_mmu.stage2_tlb.flushTlbAsid            0                       # Number of times TLB was flushed by ASID
system.cpu.itb.stage2_mmu.stage2_tlb.flushedEntries            0                       # Number of entries that have been flushed from TLB
system.cpu.itb.stage2_mmu.stage2_tlb.alignFaults            0                       # Number of TLB faults due to alignment restrictions
system.cpu.itb.stage2_mmu.stage2_tlb.prefetchFaults            0                       # Number of TLB faults due to prefetch
system.cpu.itb.stage2_mmu.stage2_tlb.domainFaults            0                       # Number of TLB faults due to domain restrictions
system.cpu.itb.stage2_mmu.stage2_tlb.permsFaults            0                       # Number of TLB faults due to permissions restrictions
system.cpu.itb.stage2_mmu.stage2_tlb.readAccesses            0                       # DTB read accesses
system.cpu.itb.stage2_mmu.stage2_tlb.writeAccesses            0                       # DTB write accesses
system.cpu.itb.stage2_mmu.stage2_tlb.instAccesses            0                       # ITB inst accesses
system.cpu.itb.stage2_mmu.stage2_tlb.hits            0                       # Total TLB (inst and data) hits
system.cpu.itb.stage2_mmu.stage2_tlb.misses            0                       # Total TLB (inst and data) misses
system.cpu.itb.stage2_mmu.stage2_tlb.accesses            0                       # Total TLB (inst and data) accesses
system.cpu.itb.stage2_mmu.stage2_tlb.walker.walks            0                       # Table walker walks requested
system.cpu.itb.stage2_mmu.stage2_tlb.walker.requestOrigin_Requested::Data            0                       # Table walker requests started/completed, data/inst
system.cpu.itb.stage2_mmu.stage2_tlb.walker.requestOrigin_Requested::Inst            0                       # Table walker requests started/completed, data/inst
system.cpu.itb.stage2_mmu.stage2_tlb.walker.requestOrigin_Requested::total            0                       # Table walker requests started/completed, data/inst
system.cpu.itb.stage2_mmu.stage2_tlb.walker.requestOrigin_Completed::Data            0                       # Table walker requests started/completed, data/inst
system.cpu.itb.stage2_mmu.stage2_tlb.walker.requestOrigin_Completed::Inst            0                       # Table walker requests started/completed, data/inst
system.cpu.itb.stage2_mmu.stage2_tlb.walker.requestOrigin_Completed::total            0                       # Table walker requests started/completed, data/inst
system.cpu.itb.stage2_mmu.stage2_tlb.walker.requestOrigin::total            0                       # Table walker requests started/completed, data/inst
system.cpu.itb.stage2_mmu.stage2_tlb.walker.power_state.pwrStateResidencyTicks::UNDEFINED 138928501000                       # Cumulative time (in ticks) in various power states
system.cpu.itb.walker.walks                         0                       # Table walker walks requested
system.cpu.itb.walker.requestOrigin_Requested::Data            0                       # Table walker requests started/completed, data/inst
system.cpu.itb.walker.requestOrigin_Requested::Inst            0                       # Table walker requests started/completed, data/inst
system.cpu.itb.walker.requestOrigin_Requested::total            0                       # Table walker requests started/completed, data/inst
system.cpu.itb.walker.requestOrigin_Completed::Data            0                       # Table walker requests started/completed, data/inst
system.cpu.itb.walker.requestOrigin_Completed::Inst            0                       # Table walker requests started/completed, data/inst
system.cpu.itb.walker.requestOrigin_Completed::total            0                       # Table walker requests started/completed, data/inst
system.cpu.itb.walker.requestOrigin::total            0                       # Table walker requests started/completed, data/inst
system.cpu.itb.walker.power_state.pwrStateResidencyTicks::UNDEFINED 138928501000                       # Cumulative time (in ticks) in various power states
system.cpu.power_state.pwrStateResidencyTicks::ON 138928501000                       # Cumulative time (in ticks) in various power states
system.cpu.thread_0.numInsts                100000000                       # Number of Instructions committed
system.cpu.thread_0.numOps                  101102842                       # Number of Ops committed
system.cpu.thread_0.numMemRefs                      0                       # Number of Memory References
system.cpu_clk_domain.clock                      1000                       # Clock period in ticks
system.cpu_voltage_domain.voltage                   1                       # Voltage in Volts
system.l2.demand_hits::.cpu.inst                 5721                       # number of demand (read+write) hits
system.l2.demand_hits::.cpu.data               744414                       # number of demand (read+write) hits
system.l2.demand_hits::total                   750135                       # number of demand (read+write) hits
system.l2.overall_hits::.cpu.inst                5721                       # number of overall hits
system.l2.overall_hits::.cpu.data              744414                       # number of overall hits
system.l2.overall_hits::total                  750135                       # number of overall hits
system.l2.demand_misses::.cpu.inst               1305                       # number of demand (read+write) misses
system.l2.demand_misses::.cpu.data               4204                       # number of demand (read+write) misses
system.l2.demand_misses::total                   5509                       # number of demand (read+write) misses
system.l2.overall_misses::.cpu.inst              1305                       # number of overall misses
system.l2.overall_misses::.cpu.data              4204                       # number of overall misses
system.l2.overall_misses::total                  5509                       # number of overall misses
system.l2.demand_miss_latency::.cpu.inst    126093000                       # number of demand (read+write) miss cycles
system.l2.demand_miss_latency::.cpu.data    422085000                       # number of demand (read+write) miss cycles
system.l2.demand_miss_latency::total        548178000                       # number of demand (read+write) miss cycles
system.l2.overall_miss_latency::.cpu.inst    126093000                       # number of overall miss cycles
system.l2.overall_miss_latency::.cpu.data    422085000                       # number of overall miss cycles
system.l2.overall_miss_latency::total       548178000                       # number of overall miss cycles
system.l2.demand_accesses::.cpu.inst             7026                       # number of demand (read+write) accesses
system.l2.demand_accesses::.cpu.data           748618                       # number of demand (read+write) accesses
system.l2.demand_accesses::total               755644                       # number of demand (read+write) accesses
system.l2.overall_accesses::.cpu.inst            7026                       # number of overall (read+write) accesses
system.l2.overall_accesses::.cpu.data          748618                       # number of overall (read+write) accesses
system.l2.overall_accesses::total              755644                       # number of overall (read+write) accesses
system.l2.demand_miss_rate::.cpu.inst        0.185739                       # miss rate for demand accesses
system.l2.demand_miss_rate::.cpu.data        0.005616                       # miss rate for demand accesses
system.l2.demand_miss_rate::total            0.007290                       # miss rate for demand accesses
system.l2.overall_miss_rate::.cpu.inst       0.185739                       # miss rate for overall accesses
system.l2.overall_miss_rate::.cpu.data       0.005616                       # miss rate for overall accesses
system.l2.overall_miss_rate::total           0.007290                       # miss rate for overall accesses
system.l2.demand_avg_miss_latency::.cpu.inst 96622.988506                       # average overall miss latency
system.l2.demand_avg_miss_latency::.cpu.data 100400.808754                       # average overall miss latency
system.l2.demand_avg_miss_latency::total 99505.899437                       # average overall miss latency
system.l2.overall_avg_miss_latency::.cpu.inst 96622.988506                       # average overall miss latency
system.l2.overall_avg_miss_latency::.cpu.data 100400.808754                       # average overall miss latency
system.l2.overall_avg_miss_latency::total 99505.899437                       # average overall miss latency
system.l2.blocked_cycles::no_mshrs                  0                       # number of cycles access was blocked
system.l2.blocked_cycles::no_targets                0                       # number of cycles access was blocked
system.l2.blocked::no_mshrs                         0                       # number of cycles access was blocked
system.l2.blocked::no_targets                       0                       # number of cycles access was blocked
system.l2.avg_blocked_cycles::no_mshrs            nan                       # average number of cycles each access was blocked
system.l2.avg_blocked_cycles::no_targets          nan                       # average number of cycles each access was blocked
system.l2.writebacks::.writebacks                  17                       # number of writebacks
system.l2.writebacks::total                        17                       # number of writebacks
system.l2.demand_mshr_hits::.cpu.data               6                       # number of demand (read+write) MSHR hits
system.l2.demand_mshr_hits::total                   6                       # number of demand (read+write) MSHR hits
system.l2.overall_mshr_hits::.cpu.data              6                       # number of overall MSHR hits
system.l2.overall_mshr_hits::total                  6                       # number of overall MSHR hits
system.l2.demand_mshr_misses::.cpu.inst          1305                       # number of demand (read+write) MSHR misses
system.l2.demand_mshr_misses::.cpu.data          4198                       # number of demand (read+write) MSHR misses
system.l2.demand_mshr_misses::total              5503                       # number of demand (read+write) MSHR misses
system.l2.overall_mshr_misses::.cpu.inst         1305                       # number of overall MSHR misses
system.l2.overall_mshr_misses::.cpu.data         4198                       # number of overall MSHR misses
system.l2.overall_mshr_misses::total             5503                       # number of overall MSHR misses
system.l2.demand_mshr_miss_latency::.cpu.inst     99993000                       # number of demand (read+write) MSHR miss cycles
system.l2.demand_mshr_miss_latency::.cpu.data    337674000                       # number of demand (read+write) MSHR miss cycles
system.l2.demand_mshr_miss_latency::total    437667000                       # number of demand (read+write) MSHR miss cycles
system.l2.overall_mshr_miss_latency::.cpu.inst     99993000                       # number of overall MSHR miss cycles
system.l2.overall_mshr_miss_latency::.cpu.data    337674000                       # number of overall MSHR miss cycles
system.l2.overall_mshr_miss_latency::total    437667000                       # number of overall MSHR miss cycles
system.l2.demand_mshr_miss_rate::.cpu.inst     0.185739                       # mshr miss rate for demand accesses
system.l2.demand_mshr_miss_rate::.cpu.data     0.005608                       # mshr miss rate for demand accesses
system.l2.demand_mshr_miss_rate::total       0.007283                       # mshr miss rate for demand accesses
system.l2.overall_mshr_miss_rate::.cpu.inst     0.185739                       # mshr miss rate for overall accesses
system.l2.overall_mshr_miss_rate::.cpu.data     0.005608                       # mshr miss rate for overall accesses
system.l2.overall_mshr_miss_rate::total      0.007283                       # mshr miss rate for overall accesses
system.l2.demand_avg_mshr_miss_latency::.cpu.inst 76622.988506                       # average overall mshr miss latency
system.l2.demand_avg_mshr_miss_latency::.cpu.data 80436.874702                       # average overall mshr miss latency
system.l2.demand_avg_mshr_miss_latency::total 79532.436853                       # average overall mshr miss latency
system.l2.overall_avg_mshr_miss_latency::.cpu.inst 76622.988506                       # average overall mshr miss latency
system.l2.overall_avg_mshr_miss_latency::.cpu.data 80436.874702                       # average overall mshr miss latency
system.l2.overall_avg_mshr_miss_latency::total 79532.436853                       # average overall mshr miss latency
system.l2.replacements                            259                       # number of replacements
system.l2.WritebackDirty_hits::.writebacks       738601                       # number of WritebackDirty hits
system.l2.WritebackDirty_hits::total           738601                       # number of WritebackDirty hits
system.l2.WritebackDirty_accesses::.writebacks       738601                       # number of WritebackDirty accesses(hits+misses)
system.l2.WritebackDirty_accesses::total       738601                       # number of WritebackDirty accesses(hits+misses)
system.l2.WritebackClean_hits::.writebacks         5714                       # number of WritebackClean hits
system.l2.WritebackClean_hits::total             5714                       # number of WritebackClean hits
system.l2.WritebackClean_accesses::.writebacks         5714                       # number of WritebackClean accesses(hits+misses)
system.l2.WritebackClean_accesses::total         5714                       # number of WritebackClean accesses(hits+misses)
system.l2.CleanEvict_mshr_misses::.writebacks            2                       # number of CleanEvict MSHR misses
system.l2.CleanEvict_mshr_misses::total             2                       # number of CleanEvict MSHR misses
system.l2.CleanEvict_mshr_miss_rate::.writebacks          inf                       # mshr miss rate for CleanEvict accesses
system.l2.CleanEvict_mshr_miss_rate::total          inf                       # mshr miss rate for CleanEvict accesses
system.l2.ReadExReq_hits::.cpu.data            155327                       # number of ReadExReq hits
system.l2.ReadExReq_hits::total                155327                       # number of ReadExReq hits
system.l2.ReadExReq_misses::.cpu.data            3666                       # number of ReadExReq misses
system.l2.ReadExReq_misses::total                3666                       # number of ReadExReq misses
system.l2.ReadExReq_miss_latency::.cpu.data    367394000                       # number of ReadExReq miss cycles
system.l2.ReadExReq_miss_latency::total     367394000                       # number of ReadExReq miss cycles
system.l2.ReadExReq_accesses::.cpu.data        158993                       # number of ReadExReq accesses(hits+misses)
system.l2.ReadExReq_accesses::total            158993                       # number of ReadExReq accesses(hits+misses)
system.l2.ReadExReq_miss_rate::.cpu.data     0.023058                       # miss rate for ReadExReq accesses
system.l2.ReadExReq_miss_rate::total         0.023058                       # miss rate for ReadExReq accesses
system.l2.ReadExReq_avg_miss_latency::.cpu.data 100216.584834                       # average ReadExReq miss latency
system.l2.ReadExReq_avg_miss_latency::total 100216.584834                       # average ReadExReq miss latency
system.l2.ReadExReq_mshr_misses::.cpu.data         3666                       # number of ReadExReq MSHR misses
system.l2.ReadExReq_mshr_misses::total           3666                       # number of ReadExReq MSHR misses
system.l2.ReadExReq_mshr_miss_latency::.cpu.data    294074000                       # number of ReadExReq MSHR miss cycles
system.l2.ReadExReq_mshr_miss_latency::total    294074000                       # number of ReadExReq MSHR miss cycles
system.l2.ReadExReq_mshr_miss_rate::.cpu.data     0.023058                       # mshr miss rate for ReadExReq accesses
system.l2.ReadExReq_mshr_miss_rate::total     0.023058                       # mshr miss rate for ReadExReq accesses
system.l2.ReadExReq_avg_mshr_miss_latency::.cpu.data 80216.584834                       # average ReadExReq mshr miss latency
system.l2.ReadExReq_avg_mshr_miss_latency::total 80216.584834                       # average ReadExReq mshr miss latency
system.l2.ReadCleanReq_hits::.cpu.inst           5721                       # number of ReadCleanReq hits
system.l2.ReadCleanReq_hits::total               5721                       # number of ReadCleanReq hits
system.l2.ReadCleanReq_misses::.cpu.inst         1305                       # number of ReadCleanReq misses
system.l2.ReadCleanReq_misses::total             1305                       # number of ReadCleanReq misses
system.l2.ReadCleanReq_miss_latency::.cpu.inst    126093000                       # number of ReadCleanReq miss cycles
system.l2.ReadCleanReq_miss_latency::total    126093000                       # number of ReadCleanReq miss cycles
system.l2.ReadCleanReq_accesses::.cpu.inst         7026                       # number of ReadCleanReq accesses(hits+misses)
system.l2.ReadCleanReq_accesses::total           7026                       # number of ReadCleanReq accesses(hits+misses)
system.l2.ReadCleanReq_miss_rate::.cpu.inst     0.185739                       # miss rate for ReadCleanReq accesses
system.l2.ReadCleanReq_miss_rate::total      0.185739                       # miss rate for ReadCleanReq accesses
system.l2.ReadCleanReq_avg_miss_latency::.cpu.inst 96622.988506                       # average ReadCleanReq miss latency
system.l2.ReadCleanReq_avg_miss_latency::total 96622.988506                       # average ReadCleanReq miss latency
system.l2.ReadCleanReq_mshr_misses::.cpu.inst         1305                       # number of ReadCleanReq MSHR misses
system.l2.ReadCleanReq_mshr_misses::total         1305                       # number of ReadCleanReq MSHR misses
system.l2.ReadCleanReq_mshr_miss_latency::.cpu.inst     99993000                       # number of ReadCleanReq MSHR miss cycles
system.l2.ReadCleanReq_mshr_miss_latency::total     99993000                       # number of ReadCleanReq MSHR miss cycles
system.l2.ReadCleanReq_mshr_miss_rate::.cpu.inst     0.185739                       # mshr miss rate for ReadCleanReq accesses
system.l2.ReadCleanReq_mshr_miss_rate::total     0.185739                       # mshr miss rate for ReadCleanReq accesses
system.l2.ReadCleanReq_avg_mshr_miss_latency::.cpu.inst 76622.988506                       # average ReadCleanReq mshr miss latency
system.l2.ReadCleanReq_avg_mshr_miss_latency::total 76622.988506                       # average ReadCleanReq mshr miss latency
system.l2.ReadSharedReq_hits::.cpu.data        589087                       # number of ReadSharedReq hits
system.l2.ReadSharedReq_hits::total            589087                       # number of ReadSharedReq hits
system.l2.ReadSharedReq_misses::.cpu.data          538                       # number of ReadSharedReq misses
system.l2.ReadSharedReq_misses::total             538                       # number of ReadSharedReq misses
system.l2.ReadSharedReq_miss_latency::.cpu.data     54691000                       # number of ReadSharedReq miss cycles
system.l2.ReadSharedReq_miss_latency::total     54691000                       # number of ReadSharedReq miss cycles
system.l2.ReadSharedReq_accesses::.cpu.data       589625                       # number of ReadSharedReq accesses(hits+misses)
system.l2.ReadSharedReq_accesses::total        589625                       # number of ReadSharedReq accesses(hits+misses)
system.l2.ReadSharedReq_miss_rate::.cpu.data     0.000912                       # miss rate for ReadSharedReq accesses
system.l2.ReadSharedReq_miss_rate::total     0.000912                       # miss rate for ReadSharedReq accesses
system.l2.ReadSharedReq_avg_miss_latency::.cpu.data 101656.133829                       # average ReadSharedReq miss latency
system.l2.ReadSharedReq_avg_miss_latency::total 101656.133829                       # average ReadSharedReq miss latency
system.l2.ReadSharedReq_mshr_hits::.cpu.data            6                       # number of ReadSharedReq MSHR hits
system.l2.ReadSharedReq_mshr_hits::total            6                       # number of ReadSharedReq MSHR hits
system.l2.ReadSharedReq_mshr_misses::.cpu.data          532                       # number of ReadSharedReq MSHR misses
system.l2.ReadSharedReq_mshr_misses::total          532                       # number of ReadSharedReq MSHR misses
system.l2.ReadSharedReq_mshr_miss_latency::.cpu.data     43600000                       # number of ReadSharedReq MSHR miss cycles
system.l2.ReadSharedReq_mshr_miss_latency::total     43600000                       # number of ReadSharedReq MSHR miss cycles
system.l2.ReadSharedReq_mshr_miss_rate::.cpu.data     0.000902                       # mshr miss rate for ReadSharedReq accesses
system.l2.ReadSharedReq_mshr_miss_rate::total     0.000902                       # mshr miss rate for ReadSharedReq accesses
system.l2.ReadSharedReq_avg_mshr_miss_latency::.cpu.data 81954.887218                       # average ReadSharedReq mshr miss latency
system.l2.ReadSharedReq_avg_mshr_miss_latency::total 81954.887218                       # average ReadSharedReq mshr miss latency
system.l2.power_state.pwrStateResidencyTicks::UNDEFINED 138928501000                       # Cumulative time (in ticks) in various power states
system.l2.tags.tagsinuse                  5073.114014                       # Cycle average of tags in use
system.l2.tags.total_refs                     1504743                       # Total number of references to valid blocks.
system.l2.tags.sampled_refs                      5526                       # Sample count of references to valid blocks.
system.l2.tags.avg_refs                    272.302389                       # Average number of references to valid blocks.
system.l2.tags.warmup_cycle                     87000                       # Cycle when the warmup percentage was hit.
system.l2.tags.occ_blocks::.writebacks      17.026831                       # Average occupied blocks per requestor
system.l2.tags.occ_blocks::.cpu.inst      1129.000951                       # Average occupied blocks per requestor
system.l2.tags.occ_blocks::.cpu.data      3927.086232                       # Average occupied blocks per requestor
system.l2.tags.occ_percent::.writebacks      0.002078                       # Average percentage of cache occupancy
system.l2.tags.occ_percent::.cpu.inst        0.137817                       # Average percentage of cache occupancy
system.l2.tags.occ_percent::.cpu.data        0.479381                       # Average percentage of cache occupancy
system.l2.tags.occ_percent::total            0.619277                       # Average percentage of cache occupancy
system.l2.tags.occ_task_id_blocks::1024          5267                       # Occupied blocks per task id
system.l2.tags.age_task_id_blocks_1024::4         5267                       # Occupied blocks per task id
system.l2.tags.occ_task_id_percent::1024     0.642944                       # Percentage of cache occupancy per task id
system.l2.tags.tag_accesses                   3015028                       # Number of tag accesses
system.l2.tags.data_accesses                  3015028                       # Number of data accesses
system.l2.tags.power_state.pwrStateResidencyTicks::UNDEFINED 138928501000                       # Cumulative time (in ticks) in various power states
system.mem_ctrls.avgPriority_.writebacks::samples        17.00                       # Average QoS priority value for accepted requests
system.mem_ctrls.avgPriority_.cpu.inst::samples      1305.00                       # Average QoS priority value for accepted requests
system.mem_ctrls.avgPriority_.cpu.data::samples      4191.00                       # Average QoS priority value for accepted requests
system.mem_ctrls.priorityMinLatency      0.000000018750                       # per QoS priority minimum request to response latency (s)
system.mem_ctrls.priorityMaxLatency      0.000000579500                       # per QoS priority maximum request to response latency (s)
system.mem_ctrls.numReadWriteTurnArounds            0                       # Number of turnarounds from READ to WRITE
system.mem_ctrls.numWriteReadTurnArounds            0                       # Number of turnarounds from WRITE to READ
system.mem_ctrls.numStayReadState               46688                       # Number of times bus staying in READ state
system.mem_ctrls.numStayWriteState                  0                       # Number of times bus staying in WRITE state
system.mem_ctrls.readReqs                        5503                       # Number of read requests accepted
system.mem_ctrls.writeReqs                         17                       # Number of write requests accepted
system.mem_ctrls.readBursts                      5503                       # Number of controller read bursts, including those serviced by the write queue
system.mem_ctrls.writeBursts                       17                       # Number of controller write bursts, including those merged in the write queue
system.mem_ctrls.servicedByWrQ                      7                       # Number of controller read bursts serviced by the write queue
system.mem_ctrls.mergedWrBursts                     0                       # Number of controller write bursts merged with an existing one
system.mem_ctrls.neitherReadNorWriteReqs            0                       # Number of requests that are neither read nor write
system.mem_ctrls.avgRdQLen                       1.01                       # Average read queue length when enqueuing
system.mem_ctrls.avgWrQLen                      15.68                       # Average write queue length when enqueuing
system.mem_ctrls.numRdRetry                         0                       # Number of times read queue was full causing retry
system.mem_ctrls.numWrRetry                         0                       # Number of times write queue was full causing retry
system.mem_ctrls.readPktSize::0                     0                       # Read request sizes (log2)
system.mem_ctrls.readPktSize::1                     0                       # Read request sizes (log2)
system.mem_ctrls.readPktSize::2                     0                       # Read request sizes (log2)
system.mem_ctrls.readPktSize::3                     0                       # Read request sizes (log2)
system.mem_ctrls.readPktSize::4                     0                       # Read request sizes (log2)
system.mem_ctrls.readPktSize::5                     0                       # Read request sizes (log2)
system.mem_ctrls.readPktSize::6                  5503                       # Read request sizes (log2)
system.mem_ctrls.writePktSize::0                    0                       # Write request sizes (log2)
[...]
system.mem_ctrls.dram.bw_write::.writebacks         7831                       # Write bandwidth from this memory (bytes/s)
system.mem_ctrls.dram.bw_write::total            7831                       # Write bandwidth from this memory (bytes/s)
system.mem_ctrls.dram.bw_total::.writebacks         7831                       # Total bandwidth to/from this memory (bytes/s)
system.mem_ctrls.dram.bw_total::.cpu.inst       601173                       # Total bandwidth to/from this memory (bytes/s)
system.mem_ctrls.dram.bw_total::.cpu.data      1933887                       # Total bandwidth to/from this memory (bytes/s)
system.mem_ctrls.dram.bw_total::total         2542891                       # Total bandwidth to/from this memory (bytes/s)
system.mem_ctrls.dram.readBursts                 5496                       # Number of DRAM read bursts
system.mem_ctrls.dram.writeBursts                   0                       # Number of DRAM write bursts
system.mem_ctrls.dram.perBankRdBursts::0          252                       # Per bank write bursts
system.mem_ctrls.dram.perBankRdBursts::1          273                       # Per bank write bursts
system.mem_ctrls.dram.perBankRdBursts::2          243                       # Per bank write bursts
system.mem_ctrls.dram.perBankRdBursts::3          403                       # Per bank write bursts
system.mem_ctrls.dram.perBankRdBursts::4          418                       # Per bank write bursts
system.mem_ctrls.dram.perBankRdBursts::5          373                       # Per bank write bursts
system.mem_ctrls.dram.perBankRdBursts::6          377                       # Per bank write bursts
system.mem_ctrls.dram.perBankRdBursts::7          401                       # Per bank write bursts
system.mem_ctrls.dram.perBankRdBursts::8          360                       # Per bank write bursts
system.mem_ctrls.dram.perBankRdBursts::9          294                       # Per bank write bursts
system.mem_ctrls.dram.perBankRdBursts::10          427                       # Per bank write bursts
system.mem_ctrls.dram.perBankRdBursts::11          288                       # Per bank write bursts
system.mem_ctrls.dram.perBankRdBursts::12          311                       # Per bank write bursts
system.mem_ctrls.dram.perBankRdBursts::13          339                       # Per bank write bursts
system.mem_ctrls.dram.perBankRdBursts::14          400                       # Per bank write bursts
system.mem_ctrls.dram.perBankRdBursts::15          337                       # Per bank write bursts
system.mem_ctrls.dram.perBankWrBursts::0            0                       # Per bank write bursts
system.mem_ctrls.dram.perBankWrBursts::1            0                       # Per bank write bursts
system.mem_ctrls.dram.perBankWrBursts::2            0                       # Per bank write bursts
system.mem_ctrls.dram.perBankWrBursts::3            0                       # Per bank write bursts
system.mem_ctrls.dram.perBankWrBursts::4            0                       # Per bank write bursts
system.mem_ctrls.dram.perBankWrBursts::5            0                       # Per bank write bursts
system.mem_ctrls.dram.perBankWrBursts::6            0                       # Per bank write bursts
system.mem_ctrls.dram.perBankWrBursts::7            0                       # Per bank write bursts
system.mem_ctrls.dram.perBankWrBursts::8            0                       # Per bank write bursts
system.mem_ctrls.dram.perBankWrBursts::9            0                       # Per bank write bursts
system.mem_ctrls.dram.perBankWrBursts::10            0                       # Per bank write bursts
system.mem_ctrls.dram.perBankWrBursts::11            0                       # Per bank write bursts
system.mem_ctrls.dram.perBankWrBursts::12            0                       # Per bank write bursts
system.mem_ctrls.dram.perBankWrBursts::13            0                       # Per bank write bursts
system.mem_ctrls.dram.perBankWrBursts::14            0                       # Per bank write bursts
system.mem_ctrls.dram.perBankWrBursts::15            0                       # Per bank write bursts
system.mem_ctrls.dram.totQLat                52196250                       # Total ticks spent queuing
system.mem_ctrls.dram.totBusLat              27480000                       # Total ticks spent in databus transfers
system.mem_ctrls.dram.totMemAccLat          155246250                       # Total ticks spent from burst creation until serviced by the DRAM
system.mem_ctrls.dram.avgQLat                 9497.13                       # Average queueing delay per DRAM burst
system.mem_ctrls.dram.avgBusLat               5000.00                       # Average bus latency per DRAM burst
system.mem_ctrls.dram.avgMemAccLat           28247.13                       # Average memory access latency per DRAM burst
system.mem_ctrls.dram.readRowHits                3754                       # Number of row buffer hits during reads
system.mem_ctrls.dram.writeRowHits                  0                       # Number of row buffer hits during writes
system.mem_ctrls.dram.readRowHitRate            68.30                       # Row buffer hit rate for reads
system.mem_ctrls.dram.writeRowHitRate             nan                       # Row buffer hit rate for writes
system.mem_ctrls.dram.bytesPerActivate::samples         1742                       # Bytes accessed per row activation
system.mem_ctrls.dram.bytesPerActivate::mean   201.919633                       # Bytes accessed per row activation
system.mem_ctrls.dram.bytesPerActivate::gmean   128.826021                       # Bytes accessed per row activation
system.mem_ctrls.dram.bytesPerActivate::stdev   252.008639                       # Bytes accessed per row activation
system.mem_ctrls.dram.bytesPerActivate::0-127          801     45.98%     45.98% # Bytes accessed per row activation
system.mem_ctrls.dram.bytesPerActivate::128-255          587     33.70%     79.68% # Bytes accessed per row activation
system.mem_ctrls.dram.bytesPerActivate::256-383          126      7.23%     86.91% # Bytes accessed per row activation
system.mem_ctrls.dram.bytesPerActivate::384-511           38      2.18%     89.09% # Bytes accessed per row activation
system.mem_ctrls.dram.bytesPerActivate::512-639           36      2.07%     91.16% # Bytes accessed per row activation
system.mem_ctrls.dram.bytesPerActivate::640-767           25      1.44%     92.59% # Bytes accessed per row activation
system.mem_ctrls.dram.bytesPerActivate::768-895           16      0.92%     93.51% # Bytes accessed per row activation
system.mem_ctrls.dram.bytesPerActivate::896-1023            9      0.52%     94.03% # Bytes accessed per row activation
system.mem_ctrls.dram.bytesPerActivate::1024-1151          104      5.97%    100.00% # Bytes accessed per row activation
system.mem_ctrls.dram.bytesPerActivate::total         1742                       # Bytes accessed per row activation
system.mem_ctrls.dram.bytesRead                351744                       # Total number of bytes read from DRAM
system.mem_ctrls.dram.bytesWritten                  0                       # Total number of bytes written to DRAM
system.mem_ctrls.dram.avgRdBW                2.531835                       # Average DRAM read bandwidth in MiBytes/s
system.mem_ctrls.dram.avgWrBW                       0                       # Average DRAM write bandwidth in MiBytes/s
system.mem_ctrls.dram.peakBW                 12800.00                       # Theoretical peak bandwidth in MiByte/s
system.mem_ctrls.dram.busUtil                    0.02                       # Data bus utilization in percentage
system.mem_ctrls.dram.busUtilRead                0.02                       # Data bus utilization in percentage for reads
system.mem_ctrls.dram.busUtilWrite               0.00                       # Data bus utilization in percentage for writes
system.mem_ctrls.dram.pageHitRate               68.30                       # Row buffer hit rate, read and write combined
system.mem_ctrls.dram.power_state.pwrStateResidencyTicks::UNDEFINED 138928501000                       # Cumulative time (in ticks) in various power states
system.mem_ctrls.dram.rank0.actEnergy         6368880                       # Energy for activate commands per rank (pJ)
system.mem_ctrls.dram.rank0.preEnergy         3385140                       # Energy for precharge commands per rank (pJ)
system.mem_ctrls.dram.rank0.readEnergy       19563600                       # Energy for read commands per rank (pJ)
system.mem_ctrls.dram.rank0.writeEnergy             0                       # Energy for write commands per rank (pJ)
system.mem_ctrls.dram.rank0.refreshEnergy 10966406880.000002                       # Energy for refresh commands per rank (pJ)
system.mem_ctrls.dram.rank0.actBackEnergy   3201326910                       # Energy for active background per rank (pJ)
system.mem_ctrls.dram.rank0.preBackEnergy  50652690240                       # Energy for precharge background per rank (pJ)
system.mem_ctrls.dram.rank0.actPowerDownEnergy            0                       # Energy for active power-down per rank (pJ)
system.mem_ctrls.dram.rank0.prePowerDownEnergy            0                       # Energy for precharge power-down per rank (pJ)
system.mem_ctrls.dram.rank0.selfRefreshEnergy            0                       # Energy for self refresh per rank (pJ)
system.mem_ctrls.dram.rank0.totalEnergy   64849741650                       # Total energy per rank (pJ)
system.mem_ctrls.dram.rank0.averagePower   466.785009                       # Core power per rank (mW)
system.mem_ctrls.dram.rank0.totalIdleTime            0                       # Total Idle time Per DRAM Rank
system.mem_ctrls.dram.rank0.pwrStateTime::IDLE 131655274750                       # Time in different power states
system.mem_ctrls.dram.rank0.pwrStateTime::REF   4638920000                       # Time in different power states
system.mem_ctrls.dram.rank0.pwrStateTime::SREF            0                       # Time in different power states
system.mem_ctrls.dram.rank0.pwrStateTime::PRE_PDN            0                       # Time in different power states
system.mem_ctrls.dram.rank0.pwrStateTime::ACT   2634306250                       # Time in different power states
system.mem_ctrls.dram.rank0.pwrStateTime::ACT_PDN            0                       # Time in different power states
system.mem_ctrls.dram.rank1.actEnergy         6069000                       # Energy for activate commands per rank (pJ)
system.mem_ctrls.dram.rank1.preEnergy         3225750                       # Energy for precharge commands per rank (pJ)
system.mem_ctrls.dram.rank1.readEnergy       19677840                       # Energy for read commands per rank (pJ)
system.mem_ctrls.dram.rank1.writeEnergy             0                       # Energy for write commands per rank (pJ)
system.mem_ctrls.dram.rank1.refreshEnergy 10966406880.000002                       # Energy for refresh commands per rank (pJ)
system.mem_ctrls.dram.rank1.actBackEnergy   3131043060                       # Energy for active background per rank (pJ)
system.mem_ctrls.dram.rank1.preBackEnergy  50711876640                       # Energy for precharge background per rank (pJ)
system.mem_ctrls.dram.rank1.actPowerDownEnergy            0                       # Energy for active power-down per rank (pJ)
system.mem_ctrls.dram.rank1.prePowerDownEnergy            0                       # Energy for precharge power-down per rank (pJ)
system.mem_ctrls.dram.rank1.selfRefreshEnergy            0                       # Energy for self refresh per rank (pJ)
system.mem_ctrls.dram.rank1.totalEnergy   64838299170                       # Total energy per rank (pJ)
system.mem_ctrls.dram.rank1.averagePower   466.702647                       # Core power per rank (mW)
system.mem_ctrls.dram.rank1.totalIdleTime            0                       # Total Idle time Per DRAM Rank
system.mem_ctrls.dram.rank1.pwrStateTime::IDLE 131809551000                       # Time in different power states
system.mem_ctrls.dram.rank1.pwrStateTime::REF   4638920000                       # Time in different power states
system.mem_ctrls.dram.rank1.pwrStateTime::SREF            0                       # Time in different power states
system.mem_ctrls.dram.rank1.pwrStateTime::PRE_PDN            0                       # Time in different power states
system.mem_ctrls.dram.rank1.pwrStateTime::ACT   2480030000                       # Time in different power states
system.mem_ctrls.dram.rank1.pwrStateTime::ACT_PDN            0                       # Time in different power states
system.mem_ctrls.power_state.pwrStateResidencyTicks::UNDEFINED 138928501000                       # Cumulative time (in ticks) in various power states
system.membus.trans_dist::ReadResp               1837                       # Transaction distribution
system.membus.trans_dist::WritebackDirty           17                       # Transaction distribution
system.membus.trans_dist::CleanEvict               94                       # Transaction distribution
system.membus.trans_dist::ReadExReq              3666                       # Transaction distribution
system.membus.trans_dist::ReadExResp             3666                       # Transaction distribution
system.membus.trans_dist::ReadSharedReq          1837                       # Transaction distribution
system.membus.pkt_count_system.l2.mem_side_port::system.mem_ctrls.port        11117                       # Packet count per connected requestor and responder (bytes)
system.membus.pkt_count::total                  11117                       # Packet count per connected requestor and responder (bytes)
system.membus.pkt_size_system.l2.mem_side_port::system.mem_ctrls.port       353280                       # Cumulative packet size per connected requestor and responder (bytes)
system.membus.pkt_size::total                  353280                       # Cumulative packet size per connected requestor and responder (bytes)
system.membus.snoops                                0                       # Total snoops (count)
system.membus.snoopTraffic                          0                       # Total snoop traffic (bytes)
system.membus.snoop_fanout::samples              5503                       # Request fanout histogram
system.membus.snoop_fanout::mean                    0                       # Request fanout histogram
system.membus.snoop_fanout::stdev                   0                       # Request fanout histogram
system.membus.snoop_fanout::underflows              0      0.00%      0.00% # Request fanout histogram
system.membus.snoop_fanout::0                    5503    100.00%    100.00% # Request fanout histogram
system.membus.snoop_fanout::1                       0      0.00%    100.00% # Request fanout histogram
system.membus.snoop_fanout::overflows               0      0.00%    100.00% # Request fanout histogram
system.membus.snoop_fanout::min_value               0                       # Request fanout histogram
system.membus.snoop_fanout::max_value               0                       # Request fanout histogram
system.membus.snoop_fanout::total                5503                       # Request fanout histogram
system.membus.power_state.pwrStateResidencyTicks::UNDEFINED 138928501000                       # Cumulative time (in ticks) in various power states
system.membus.reqLayer0.occupancy             5682000                       # Layer occupancy (ticks)
system.membus.reqLayer0.utilization               0.0                       # Layer utilization (%)
system.membus.respLayer1.occupancy           29298000                       # Layer occupancy (ticks)
system.membus.respLayer1.utilization              0.0                       # Layer utilization (%)
system.tol2bus.trans_dist::ReadResp            596651                       # Transaction distribution
system.tol2bus.trans_dist::WritebackDirty       738618                       # Transaction distribution
system.tol2bus.trans_dist::WritebackClean         6210                       # Transaction distribution
system.tol2bus.trans_dist::CleanEvict           10131                       # Transaction distribution
system.tol2bus.trans_dist::ReadExReq           158993                       # Transaction distribution
system.tol2bus.trans_dist::ReadExResp          158993                       # Transaction distribution
system.tol2bus.trans_dist::ReadCleanReq          7026                       # Transaction distribution
system.tol2bus.trans_dist::ReadSharedReq       589625                       # Transaction distribution
system.tol2bus.pkt_count_system.cpu.icache.mem_side_port::system.l2.cpu_side_port        20262                       # Packet count per connected requestor and responder (bytes)
system.tol2bus.pkt_count_system.cpu.dcache.mem_side_port::system.l2.cpu_side_port      2245726                       # Packet count per connected requestor and responder (bytes)
system.tol2bus.pkt_count::total               2265988                       # Packet count per connected requestor and responder (bytes)
system.tol2bus.pkt_size_system.cpu.icache.mem_side_port::system.l2.cpu_side_port       847104                       # Cumulative packet size per connected requestor and responder (bytes)
system.tol2bus.pkt_size_system.cpu.dcache.mem_side_port::system.l2.cpu_side_port     95182016                       # Cumulative packet size per connected requestor and responder (bytes)
system.tol2bus.pkt_size::total               96029120                       # Cumulative packet size per connected requestor and responder (bytes)
system.tol2bus.snoops                             259                       # Total snoops (count)
system.tol2bus.snoopTraffic                      1088                       # Total snoop traffic (bytes)
system.tol2bus.snoop_fanout::samples           755903                       # Request fanout histogram
system.tol2bus.snoop_fanout::mean            0.007598                       # Request fanout histogram
system.tol2bus.snoop_fanout::stdev           0.086832                       # Request fanout histogram
system.tol2bus.snoop_fanout::underflows             0      0.00%      0.00% # Request fanout histogram
system.tol2bus.snoop_fanout::0                 750160     99.24%     99.24% # Request fanout histogram
system.tol2bus.snoop_fanout::1                   5743      0.76%    100.00% # Request fanout histogram
system.tol2bus.snoop_fanout::2                      0      0.00%    100.00% # Request fanout histogram
system.tol2bus.snoop_fanout::overflows              0      0.00%    100.00% # Request fanout histogram
system.tol2bus.snoop_fanout::min_value              0                       # Request fanout histogram
system.tol2bus.snoop_fanout::max_value              1                       # Request fanout histogram
system.tol2bus.snoop_fanout::total             755903                       # Request fanout histogram
system.tol2bus.power_state.pwrStateResidencyTicks::UNDEFINED 138928501000                       # Cumulative time (in ticks) in various power states
system.tol2bus.reqLayer0.occupancy         2999966000                       # Layer occupancy (ticks)
system.tol2bus.reqLayer0.utilization              2.2                       # Layer utilization (%)
system.tol2bus.respLayer0.occupancy          21147930                       # Layer occupancy (ticks)
system.tol2bus.respLayer0.utilization             0.0                       # Layer utilization (%)
system.tol2bus.respLayer1.occupancy        2245859994                       # Layer occupancy (ticks)
system.tol2bus.respLayer1.utilization             1.6                       # Layer utilization (%)
system.voltage_domain.voltage                       1                       # Voltage in Volts

---------- End Simulation Statistics   ----------
