
---------- Begin Simulation Statistics ----------
final_tick                               118816520000                       # Number of ticks from beginning of simulation (restored from checkpoints and never reset)
host_inst_rate                                 421526                       # Simulator instruction rate (inst/s)
host_mem_usage                                 665556                       # Number of bytes of host memory used
host_op_rate                                   426175                       # Simulator op (including micro ops) rate (op/s)
host_seconds                                   237.23                       # Real time elapsed on the host
host_tick_rate                              500842507                       # Simulator tick rate (ticks/s)
sim_freq                                 1000000000000                       # Frequency of simulated ticks
sim_insts                                   100000000                       # Number of instructions simulated
sim_ops                                     101102842                       # Number of ops (including micro ops) simulated
sim_seconds                                  0.118817                       # Number of seconds simulated
sim_ticks                                118816520000                       # Number of ticks simulated
system.cpu.committedInsts                   100000000                       # Number of instructions committed
system.cpu.committedOps                     101102842                       # Number of ops (including micro ops) committed
system.cpu.cpi                               1.188165                       # CPI: cycles per instruction
system.cpu.discardedOps                        970078                       # Number of ops (including micro ops) which were discarded before commit
system.cpu.idleCycles                         2876816                       # Total number of cycles that the object has spent stopped
system.cpu.ipc                               0.841634                       # IPC: instructions per cycle
system.cpu.numCycles                        118816520                       # number of cpu cycles simulated
system.cpu.numFetchSuspends                         0                       # Number of times Execute suspended instruction fetching
system.cpu.numWorkItemsCompleted                    0                       # number of work items this cpu completed
system.cpu.numWorkItemsStarted                      0                       # number of work items this cpu started
system.cpu.op_class_0::No_OpClass                   0      0.00%      0.00% # Class of committed instruction
system.cpu.op_class_0::IntAlu                55116018     54.51%     54.51% # Class of committed instruction
system.cpu.op_class_0::IntMult                 167845      0.17%     54.68% # Class of committed instruction
system.cpu.op_class_0::IntDiv                       0      0.00%     54.68% # Class of committed instruction
system.cpu.op_class_0::FloatAdd                     0      0.00%     54.68% # Class of committed instruction
system.cpu.op_class_0::FloatCmp                     0      0.00%     54.68% # Class of committed instruction
system.cpu.op_class_0::FloatCvt                     0      0.00%     54.68% # Class of committed instruction
system.cpu.op_class_0::FloatMult                    0      0.00%     54.68% # Class of committed instruction
system.cpu.op_class_0::FloatMultAcc                 0      0.00%     54.68% # Class of committed instruction
system.cpu.op_class_0::FloatDiv                     0      0.00%     54.68% # Class of committed instruction
system.cpu.op_class_0::FloatMisc                    0      0.00%     54.68% # Class of committed instruction
system.cpu.op_class_0::FloatSqrt                    0      0.00%     54.68% # Class of committed instruction
system.cpu.op_class_0::SimdAdd                    376      0.00%     54.68% # Class of committed instruction
system.cpu.op_class_0::SimdAddAcc                   0      0.00%     54.68% # Class of committed instruction
system.cpu.op_class_0::SimdAlu                    466      0.00%     54.68% # Class of committed instruction
system.cpu.op_class_0::SimdCmp                    378      0.00%     54.68% # Class of committed instruction
system.cpu.op_class_0::SimdCvt                      0      0.00%     54.68% # Class of committed instruction
system.cpu.op_class_0::SimdMisc                    53      0.00%     54.68% # Class of committed instruction
system.cpu.op_class_0::SimdMult                     0      0.00%     54.68% # Class of committed instruction
system.cpu.op_class_0::SimdMultAcc                  0      0.00%     54.68% # Class of committed instruction
system.cpu.op_class_0::SimdShift                    0      0.00%     54.68% # Class of committed instruction
system.cpu.op_class_0::SimdShiftAcc                 0      0.00%     54.68% # Class of committed instruction
system.cpu.op_class_0::SimdDiv                      0      0.00%     54.68% # Class of committed instruction
system.cpu.op_class_0::SimdSqrt                     0      0.00%     54.68% # Class of committed instruction
system.cpu.op_class_0::SimdFloatAdd            267609      0.26%     54.95% # Class of committed instruction
system.cpu.op_class_0::SimdFloatAlu                 0      0.00%     54.95% # Class of committed instruction
system.cpu.op_class_0::SimdFloatCmp            259630      0.26%     55.20% # Class of committed instruction
system.cpu.op_class_0::SimdFloatCvt            161456      0.16%     55.36% # Class of committed instruction
system.cpu.op_class_0::SimdFloatDiv             54308      0.05%     55.42% # Class of committed instruction
system.cpu.op_class_0::SimdFloatMisc           483616      0.48%     55.90% # Class of committed instruction
system.cpu.op_class_0::SimdFloatMult            33524      0.03%     55.93% # Class of committed instruction
system.cpu.op_class_0::SimdFloatMultAcc         11115      0.01%     55.94% # Class of committed instruction
system.cpu.op_class_0::SimdFloatSqrt                0      0.00%     55.94% # Class of committed instruction
system.cpu.op_class_0::SimdReduceAdd                0      0.00%     55.94% # Class of committed instruction
system.cpu.op_class_0::SimdReduceAlu                0      0.00%     55.94% # Class of committed instruction
system.cpu.op_class_0::SimdReduceCmp                0      0.00%     55.94% # Class of committed instruction
system.cpu.op_class_0::SimdFloatReduceAdd            0      0.00%     55.94% # Class of committed instruction
system.cpu.op_class_0::SimdFloatReduceCmp            0      0.00%     55.94% # Class of committed instruction
system.cpu.op_class_0::SimdAes                      0      0.00%     55.94% # Class of committed instruction
system.cpu.op_class_0::SimdAesMix                   0      0.00%     55.94% # Class of committed instruction
system.cpu.op_class_0::SimdSha1Hash                 0      0.00%     55.94% # Class of committed instruction
system.cpu.op_class_0::SimdSha1Hash2                0      0.00%     55.94% # Class of committed instruction
system.cpu.op_class_0::SimdSha256Hash               0      0.00%     55.94% # Class of committed instruction
system.cpu.op_class_0::SimdSha256Hash2              0      0.00%     55.94% # Class of committed instruction
system.cpu.op_class_0::SimdShaSigma2                0      0.00%     55.94% # Class of committed instruction
system.cpu.op_class_0::SimdShaSigma3                0      0.00%     55.94% # Class of committed instruction
system.cpu.op_class_0::SimdPredAlu                  0      0.00%     55.94% # Class of committed instruction
system.cpu.op_class_0::MemRead               38167367     37.75%     93.69% # Class of committed instruction
system.cpu.op_class_0::MemWrite               6379081      6.31%    100.00% # Class of committed instruction
system.cpu.op_class_0::FloatMemRead                 0      0.00%    100.00% # Class of committed instruction
system.cpu.op_class_0::FloatMemWrite                0      0.00%    100.00% # Class of committed instruction
system.cpu.op_class_0::IprAccess                    0      0.00%    100.00% # Class of committed instruction
system.cpu.op_class_0::InstPrefetch                 0      0.00%    100.00% # Class of committed instruction
system.cpu.op_class_0::total                101102842                       # Class of committed instruction
system.cpu.tickCycles                       115939704                       # Number of cycles that the object actually ticked
system.cpu.workload.numSyscalls                    32                       # Number of system calls
system.membus.snoop_filter.hit_multi_requests            0                       # Number of requests hitting in the snoop filter with multiple (>1) holders of the requested data.
system.membus.snoop_filter.hit_multi_snoops            0                       # Number of snoops hitting in the snoop filter with multiple (>1) holders of the requested data.
system.membus.snoop_filter.hit_single_requests          114                       # Number of requests hitting in the snoop filter with a single holder of the requested data.
system.membus.snoop_filter.hit_single_snoops            0                       # Number of snoops hitting in the snoop filter with a single holder of the requested data.
system.membus.snoop_filter.tot_requests          5612                       # Total number of requests made to the snoop filter.
system.membus.snoop_filter.tot_snoops               0                       # Total number of snoops made to the snoop filter.
system.tol2bus.snoop_filter.hit_multi_requests         1349                       # Number of requests hitting in the snoop filter with multiple (>1) holders of the requested data.
system.tol2bus.snoop_filter.hit_multi_snoops            8                       # Number of snoops hitting in the snoop filter with multiple (>1) holders of the requested data.
system.tol2bus.snoop_filter.hit_single_requests        58637                       # Number of requests hitting in the snoop filter with a single holder of the requested data.
system.tol2bus.snoop_filter.hit_single_snoops          205                       # Number of snoops hitting in the snoop filter with a single holder of the requested data.
system.tol2bus.snoop_filter.tot_requests       120121                       # Total number of requests made to the snoop filter.
system.tol2bus.snoop_filter.tot_snoops            213                       # Total number of snoops made to the snoop filter.
system.clk_domain.clock                          1000                       # Clock period in ticks
system.cpu.branchPred.lookups                 6499666                       # Number of BP lookups
system.cpu.branchPred.condPredicted           5092007                       # Number of conditional branches predicted
system.cpu.branchPred.condIncorrect            349137                       # Number of conditional branches incorrect
system.cpu.branchPred.BTBLookups              4082714                       # Number of BTB lookups
system.cpu.branchPred.BTBHits                 4075402                       # Number of BTB hits
system.cpu.branchPred.BTBHitPct             99.820903                       # BTB Hit Percentage
system.cpu.branchPred.RASUsed                  312483                       # Number of times the RAS was used to get a target.
system.cpu.branchPred.RASIncorrect                  4                       # Number of incorrect RAS predictions.
system.cpu.branchPred.indirectLookups          675681                       # Number of indirect predictor lookups.
system.cpu.branchPred.indirectHits             102897                       # Number of indirect target hits.
system.cpu.branchPred.indirectMisses           572784                       # Number of indirect misses.
system.cpu.branchPred.indirectMispredicted        37435                       # Number of mispredicted indirect branches.
system.cpu.dcache.demand_hits::.cpu.data     43854947                       # number of demand (read+write) hits
system.cpu.dcache.demand_hits::total         43854947                       # number of demand (read+write) hits
system.cpu.dcache.overall_hits::.cpu.data     43863584                       # number of overall hits
system.cpu.dcache.overall_hits::total        43863584                       # number of overall hits
system.cpu.dcache.demand_misses::.cpu.data        58354                       # number of demand (read+write) misses
system.cpu.dcache.demand_misses::total          58354                       # number of demand (read+write) misses
system.cpu.dcache.overall_misses::.cpu.data        58466                       # number of overall misses
system.cpu.dcache.overall_misses::total         58466                       # number of overall misses
system.cpu.dcache.demand_miss_latency::.cpu.data   2026172000                       # number of demand (read+write) miss cycles
system.cpu.dcache.demand_miss_latency::total   2026172000                       # number of demand (read+write) miss cycles
system.cpu.dcache.overall_miss_latency::.cpu.data   2026172000                       # number of overall miss cycles
system.cpu.dcache.overall_miss_latency::total   2026172000                       # number of overall miss cycles
system.cpu.dcache.demand_accesses::.cpu.data     43913301                       # number of demand (read+write) accesses
system.cpu.dcache.demand_accesses::total     43913301                       # number of demand (read+write) accesses
system.cpu.dcache.overall_accesses::.cpu.data     43922050                       # number of overall (read+write) accesses
system.cpu.dcache.overall_accesses::total     43922050                       # number of overall (read+write) accesses
system.cpu.dcache.demand_miss_rate::.cpu.data     0.001329                       # miss rate for demand accesses
system.cpu.dcache.demand_miss_rate::total     0.001329                       # miss rate for demand accesses
system.cpu.dcache.overall_miss_rate::.cpu.data     0.001331                       # miss rate for overall accesses
system.cpu.dcache.overall_miss_rate::total     0.001331                       # miss rate for overall accesses
system.cpu.dcache.demand_avg_miss_latency::.cpu.data 34722.075607                       # average overall miss latency
system.cpu.dcache.demand_avg_miss_latency::total 34722.075607                       # average overall miss latency
system.cpu.dcache.overall_avg_miss_latency::.cpu.data 34655.560497                       # average overall miss latency
system.cpu.dcache.overall_avg_miss_latency::total 34655.560497                       # average overall miss latency
system.cpu.dcache.blocked_cycles::no_mshrs           62                       # number of cycles access was blocked
system.cpu.dcache.blocked_cycles::no_targets            0                       # number of cycles access was blocked
system.cpu.dcache.blocked::no_mshrs                 1                       # number of cycles access was blocked
system.cpu.dcache.blocked::no_targets               0                       # number of cycles access was blocked
system.cpu.dcache.avg_blocked_cycles::no_mshrs           62                       # average number of cycles each access was blocked
system.cpu.dcache.avg_blocked_cycles::no_targets          nan                       # average number of cycles each access was blocked
system.cpu.dcache.writebacks::.writebacks        50683                       # number of writebacks
system.cpu.dcache.writebacks::total             50683                       # number of writebacks
system.cpu.dcache.demand_mshr_hits::.cpu.data         3936                       # number of demand (read+write) MSHR hits
system.cpu.dcache.demand_mshr_hits::total         3936                       # number of demand (read+write) MSHR hits
system.cpu.dcache.overall_mshr_hits::.cpu.data         3936                       # number of overall MSHR hits
system.cpu.dcache.overall_mshr_hits::total         3936                       # number of overall MSHR hits
system.cpu.dcache.demand_mshr_misses::.cpu.data        54418                       # number of demand (read+write) MSHR misses
system.cpu.dcache.demand_mshr_misses::total        54418                       # number of demand (read+write) MSHR misses
system.cpu.dcache.overall_mshr_misses::.cpu.data        54516                       # number of overall MSHR misses
system.cpu.dcache.overall_mshr_misses::total        54516                       # number of overall MSHR misses
system.cpu.dcache.demand_mshr_miss_latency::.cpu.data   1663974000                       # number of demand (read+write) MSHR miss cycles
system.cpu.dcache.demand_mshr_miss_latency::total   1663974000                       # number of demand (read+write) MSHR miss cycles
system.cpu.dcache.overall_mshr_miss_latency::.cpu.data   1673363000                       # number of overall MSHR miss cycles
system.cpu.dcache.overall_mshr_miss_latency::total   1673363000                       # number of overall MSHR miss cycles
system.cpu.dcache.demand_mshr_miss_rate::.cpu.data     0.001239                       # mshr miss rate for demand accesses
system.cpu.dcache.demand_mshr_miss_rate::total     0.001239                       # mshr miss rate for demand accesses
system.cpu.dcache.overall_mshr_miss_rate::.cpu.data     0.001241                       # mshr miss rate for overall accesses
system.cpu.dcache.overall_mshr_miss_rate::total     0.001241                       # mshr miss rate for overall accesses
system.cpu.dcache.demand_avg_mshr_miss_latency::.cpu.data 30577.639752                       # average overall mshr miss latency
system.cpu.dcache.demand_avg_mshr_miss_latency::total 30577.639752                       # average overall mshr miss latency
system.cpu.dcache.overall_avg_mshr_miss_latency::.cpu.data 30694.896911                       # average overall mshr miss latency
system.cpu.dcache.overall_avg_mshr_miss_latency::total 30694.896911                       # average overall mshr miss latency
system.cpu.dcache.replacements                  52469                       # number of replacements
system.cpu.dcache.ReadReq_hits::.cpu.data     37569455                       # number of ReadReq hits
system.cpu.dcache.ReadReq_hits::total        37569455                       # number of ReadReq hits
system.cpu.dcache.ReadReq_misses::.cpu.data        23014                       # number of ReadReq misses
system.cpu.dcache.ReadReq_misses::total         23014                       # number of ReadReq misses
system.cpu.dcache.ReadReq_miss_latency::.cpu.data    668577000                       # number of ReadReq miss cycles
system.cpu.dcache.ReadReq_miss_latency::total    668577000                       # number of ReadReq miss cycles
system.cpu.dcache.ReadReq_accesses::.cpu.data     37592469                       # number of ReadReq accesses(hits+misses)
system.cpu.dcache.ReadReq_accesses::total     37592469                       # number of ReadReq accesses(hits+misses)
system.cpu.dcache.ReadReq_miss_rate::.cpu.data     0.000612                       # miss rate for ReadReq accesses
system.cpu.dcache.ReadReq_miss_rate::total     0.000612                       # miss rate for ReadReq accesses
system.cpu.dcache.ReadReq_avg_miss_latency::.cpu.data 29050.882072                       # average ReadReq miss latency
system.cpu.dcache.ReadReq_avg_miss_latency::total 29050.882072                       # average ReadReq miss latency
system.cpu.dcache.ReadReq_mshr_hits::.cpu.data          231                       # number of ReadReq MSHR hits
system.cpu.dcache.ReadReq_mshr_hits::total          231                       # number of ReadReq MSHR hits
system.cpu.dcache.ReadReq_mshr_misses::.cpu.data        22783                       # number of ReadReq MSHR misses
system.cpu.dcache.ReadReq_mshr_misses::total        22783                       # number of ReadReq MSHR misses
system.cpu.dcache.ReadReq_mshr_miss_latency::.cpu.data    614167000                       # number of ReadReq MSHR miss cycles
system.cpu.dcache.ReadReq_mshr_miss_latency::total    614167000                       # number of ReadReq MSHR miss cycles
system.cpu.dcache.ReadReq_mshr_miss_rate::.cpu.data     0.000606                       # mshr miss rate for ReadReq accesses
system.cpu.dcache.ReadReq_mshr_miss_rate::total     0.000606                       # mshr miss rate for ReadReq accesses
system.cpu.dcache.ReadReq_avg_mshr_miss_latency::.cpu.data 26957.248826                       # average ReadReq mshr miss latency
system.cpu.dcache.ReadReq_avg_mshr_miss_latency::total 26957.248826                       # average ReadReq mshr miss latency
system.cpu.dcache.WriteReq_hits::.cpu.data      6285492                       # number of WriteReq hits
system.cpu.dcache.WriteReq_hits::total        6285492                       # number of WriteReq hits
system.cpu.dcache.WriteReq_misses::.cpu.data        35340                       # number of WriteReq misses
system.cpu.dcache.WriteReq_misses::total        35340                       # number of WriteReq misses
system.cpu.dcache.WriteReq_miss_latency::.cpu.data   1357595000                       # number of WriteReq miss cycles
system.cpu.dcache.WriteReq_miss_latency::total   1357595000                       # number of WriteReq miss cycles
system.cpu.dcache.WriteReq_accesses::.cpu.data      6320832                       # number of WriteReq accesses(hits+misses)
system.cpu.dcache.WriteReq_accesses::total      6320832                       # number of WriteReq accesses(hits+misses)
system.cpu.dcache.WriteReq_miss_rate::.cpu.data     0.005591                       # miss rate for WriteReq accesses
system.cpu.dcache.WriteReq_miss_rate::total     0.005591                       # miss rate for WriteReq accesses
system.cpu.dcache.WriteReq_avg_miss_latency::.cpu.data 38415.251839                       # average WriteReq miss latency
system.cpu.dcache.WriteReq_avg_miss_latency::total 38415.251839                       # average WriteReq miss latency
system.cpu.dcache.WriteReq_mshr_hits::.cpu.data         3705                       # number of WriteReq MSHR hits
system.cpu.dcache.WriteReq_mshr_hits::total         3705                       # number of WriteReq MSHR hits
system.cpu.dcache.WriteReq_mshr_misses::.cpu.data        31635                       # number of WriteReq MSHR misses
system.cpu.dcache.WriteReq_mshr_misses::total        31635                       # number of WriteReq MSHR misses
system.cpu.dcache.WriteReq_mshr_miss_latency::.cpu.data   1049807000                       # number of WriteReq MSHR miss cycles
system.cpu.dcache.WriteReq_mshr_miss_latency::total   1049807000                       # number of WriteReq MSHR miss cycles
system.cpu.dcache.WriteReq_mshr_miss_rate::.cpu.data     0.005005                       # mshr miss rate for WriteReq accesses
system.cpu.dcache.WriteReq_mshr_miss_rate::total     0.005005                       # mshr miss rate for WriteReq accesses
system.cpu.dcache.WriteReq_avg_mshr_miss_latency::.cpu.data 33184.984985                       # average WriteReq mshr miss latency
system.cpu.dcache.WriteReq_avg_mshr_miss_latency::total 33184.984985                       # average WriteReq mshr miss latency
system.cpu.dcache.SoftPFReq_hits::.cpu.data         8637                       # number of SoftPFReq hits
system.cpu.dcache.SoftPFReq_hits::total          8637                       # number of SoftPFReq hits
system.cpu.dcache.SoftPFReq_misses::.cpu.data          112                       # number of SoftPFReq misses
system.cpu.dcache.SoftPFReq_misses::total          112                       # number of SoftPFReq misses
system.cpu.dcache.SoftPFReq_accesses::.cpu.data         8749                       # number of SoftPFReq accesses(hits+misses)
system.cpu.dcache.SoftPFReq_accesses::total         8749                       # number of SoftPFReq accesses(hits+misses)
system.cpu.dcache.SoftPFReq_miss_rate::.cpu.data     0.012801                       # miss rate for SoftPFReq accesses
system.cpu.dcache.SoftPFReq_miss_rate::total     0.012801                       # miss rate for SoftPFReq accesses
system.cpu.dcache.SoftPFReq_mshr_misses::.cpu.data           98                       # number of SoftPFReq MSHR misses
system.cpu.dcache.SoftPFReq_mshr_misses::total           98                       # number of SoftPFReq MSHR misses
system.cpu.dcache.SoftPFReq_mshr_miss_latency::.cpu.data      9389000                       # number of SoftPFReq MSHR miss cycles
system.cpu.dcache.SoftPFReq_mshr_miss_latency::total      9389000                       # number of SoftPFReq MSHR miss cycles
system.cpu.dcache.SoftPFReq_mshr_miss_rate::.cpu.data     0.011201                       # mshr miss rate for SoftPFReq accesses
system.cpu.dcache.SoftPFReq_mshr_miss_rate::total     0.011201                       # mshr miss rate for SoftPFReq accesses
system.cpu.dcache.SoftPFReq_avg_mshr_miss_latency::.cpu.data 95806.122449                       # average SoftPFReq mshr miss latency
system.cpu.dcache.SoftPFReq_avg_mshr_miss_latency::total 95806.122449                       # average SoftPFReq mshr miss latency
system.cpu.dcache.LoadLockedReq_hits::.cpu.data          165                       # number of LoadLockedReq hits
system.cpu.dcache.LoadLockedReq_hits::total          165                       # number of LoadLockedReq hits
system.cpu.dcache.LoadLockedReq_misses::.cpu.data            1                       # number of LoadLockedReq misses
system.cpu.dcache.LoadLockedReq_misses::total            1                       # number of LoadLockedReq misses
system.cpu.dcache.LoadLockedReq_miss_latency::.cpu.data       109000                       # number of LoadLockedReq miss cycles
system.cpu.dcache.LoadLockedReq_miss_latency::total       109000                       # number of LoadLockedReq miss cycles
system.cpu.dcache.LoadLockedReq_accesses::.cpu.data          166                       # number of LoadLockedReq accesses(hits+misses)
system.cpu.dcache.LoadLockedReq_accesses::total          166                       # number of LoadLockedReq accesses(hits+misses)
system.cpu.dcache.LoadLockedReq_miss_rate::.cpu.data     0.006024                       # miss rate for LoadLockedReq accesses
system.cpu.dcache.LoadLockedReq_miss_rate::total     0.006024                       # miss rate for LoadLockedReq accesses
system.cpu.dcache.LoadLockedReq_avg_miss_latency::.cpu.data       109000                       # average LoadLockedReq miss latency
system.cpu.dcache.LoadLockedReq_avg_miss_latency::total       109000                       # average LoadLockedReq miss latency
system.cpu.dcache.LoadLockedReq_mshr_misses::.cpu.data            1                       # number of LoadLockedReq MSHR misses
system.cpu.dcache.LoadLockedReq_mshr_misses::total            1                       # number of LoadLockedReq MSHR misses
system.cpu.dcache.LoadLockedReq_mshr_miss_latency::.cpu.data       107000                       # number of LoadLockedReq MSHR miss cycles
system.cpu.dcache.LoadLockedReq_mshr_miss_latency::total       107000                       # number of LoadLockedReq MSHR miss cycles
system.cpu.dcache.LoadLockedReq_mshr_miss_rate::.cpu.data     0.006024                       # mshr miss rate for LoadLockedReq accesses
system.cpu.dcache.LoadLockedReq_mshr_miss_rate::total     0.006024                       # mshr miss rate for LoadLockedReq accesses
system.cpu.dcache.LoadLockedReq_avg_mshr_miss_latency::.cpu.data       107000                       # average LoadLockedReq mshr miss latency
system.cpu.dcache.LoadLockedReq_avg_mshr_miss_latency::total       107000                       # average LoadLockedReq mshr miss latency
system.cpu.dcache.StoreCondReq_hits::.cpu.data          166                       # number of StoreCondReq hits
system.cpu.dcache.StoreCondReq_hits::total          166                       # number of StoreCondReq hits
system.cpu.dcache.StoreCondReq_accesses::.cpu.data          166                       # number of StoreCondReq accesses(hits+misses)
system.cpu.dcache.StoreCondReq_accesses::total          166                       # number of StoreCondReq accesses(hits+misses)
system.cpu.dcache.power_state.pwrStateResidencyTicks::UNDEFINED 118816520000                       # Cumulative time (in ticks) in various power states
system.cpu.dcache.tags.tagsinuse          2005.703812                       # Cycle average of tags in use
system.cpu.dcache.tags.total_refs            43918432                       # Total number of references to valid blocks.
system.cpu.dcache.tags.sampled_refs             54517                       # Sample count of references to valid blocks.
system.cpu.dcache.tags.avg_refs            805.591504                       # Average number of references to valid blocks.
system.cpu.dcache.tags.warmup_cycle            223000                       # Cycle when the warmup percentage was hit.
system.cpu.dcache.tags.occ_blocks::.cpu.data  2005.703812                       # Average occupied blocks per requestor
system.cpu.dcache.tags.occ_percent::.cpu.data     0.979348                       # Average percentage of cache occupancy
system.cpu.dcache.tags.occ_percent::total     0.979348                       # Average percentage of cache occupancy
system.cpu.dcache.tags.occ_task_id_blocks::1024         2048                       # Occupied blocks per task id
system.cpu.dcache.tags.age_task_id_blocks_1024::0            1                       # Occupied blocks per task id
system.cpu.dcache.tags.age_task_id_blocks_1024::1           27                       # Occupied blocks per task id
system.cpu.dcache.tags.age_task_id_blocks_1024::2          187                       # Occupied blocks per task id
system.cpu.dcache.tags.age_task_id_blocks_1024::3          616                       # Occupied blocks per task id
system.cpu.dcache.tags.age_task_id_blocks_1024::4         1217                       # Occupied blocks per task id
system.cpu.dcache.tags.occ_task_id_percent::1024            1                       # Percentage of cache occupancy per task id
system.cpu.dcache.tags.tag_accesses          43976899                       # Number of tag accesses
system.cpu.dcache.tags.data_accesses         43976899                       # Number of data accesses
system.cpu.dcache.tags.power_state.pwrStateResidencyTicks::UNDEFINED 118816520000                       # Cumulative time (in ticks) in various power states
system.cpu.dtb.instHits                             0                       # ITB inst hits
system.cpu.dtb.instMisses                           0                       # ITB inst misses
system.cpu.dtb.readHits                             0                       # DTB read hits
system.cpu.dtb.readMisses                           0                       # DTB read misses
system.cpu.dtb.writeHits                            0                       # DTB write hits
system.cpu.dtb.writeMisses                          0                       # DTB write misses
system.cpu.dtb.inserts                              0                       # Number of times an entry is inserted into the TLB
system.cpu.dtb.flushTlb                             0                       # Number of times complete TLB was flushed
system.cpu.dtb.flushTlbMva                          0                       # Number of times TLB was flushed by MVA
system.cpu.dtb.flushTlbMvaAsid                      0                       # Number of times TLB was flushed by MVA & ASID
system.cpu.dtb.flushTlbAsid                         0                       # Number of times TLB was flushed by ASID
system.cpu.dtb.flushedEntries                       0                       # Number of entries that have been flushed from TLB
system.cpu.dtb.alignFaults                          0                       # Number of TLB faults due to alignment restrictions
system.cpu.dtb.prefetchFaults                       0                       # Number of TLB faults due to prefetch
system.cpu.dtb.domainFaults                         0                       # Number of TLB faults due to domain restrictions
system.cpu.dtb.permsFaults                          0                       # Number of TLB faults due to permissions restrictions
system.cpu.dtb.readAccesses                         0                       # DTB read accesses
system.cpu.dtb.writeAccesses                        0                       # DTB write accesses
system.cpu.dtb.instAccesses                         0                       # ITB inst accesses
system.cpu.dtb.hits                                 0                       # Total TLB (inst and data) hits
system.cpu.dtb.misses                               0                       # Total TLB (inst and data) misses
system.cpu.dtb.accesses                             0                       # Total TLB (inst and data) accesses
system.cpu.dtb.stage2_mmu.stage2_tlb.instHits            0                       # ITB inst hits
system.cpu.dtb.stage2_mmu.stage2_tlb.instMisses            0                       # ITB inst misses
system.cpu.dtb.stage2_mmu.stage2_tlb.readHits            0                       # DTB read hits
system.cpu.dtb.stage2_mmu.stage2_tlb.readMisses            0                       # DTB read misses
system.cpu.dtb.stage2_mmu.stage2_tlb.writeHits            0                       # DTB write hits
system.cpu.dtb.stage2_mmu.stage2_tlb.writeMisses            0                       # DTB write misses
system.cpu.dtb.stage2_mmu.stage2_tlb.inserts            0                       # Number of times an entry is inserted into the TLB
system.cpu.dtb.stage2_mmu.stage2_tlb.flushTlb            0                       # Number of times complete TLB was flushed
system.cpu.dtb.stage2_mmu.stage2_tlb.flushTlbMva            0                       # Number of times TLB was flushed by MVA
system.cpu.dtb.stage2_mmu.stage2_tlb.flushTlbMvaAsid            0                       # Number of times TLB was flushed by MVA & ASID
system.cpu.dtb.stage2_mmu.stage2_tlb.flushTlbAsid            0                       # Number of times TLB was flushed by ASID
system.cpu.dtb.stage2_mmu.stage2_tlb.flushedEntries            0                       # Number of entries that have been flushed from TLB
system.cpu.dtb.stage2_mmu.stage2_tlb.alignFaults            0                       # Number of TLB faults due to alignment restrictions
system.cpu.dtb.stage2_mmu.stage2_tlb.prefetchFaults            0                       # Number of TLB faults due to prefetch
system.cpu.dtb.stage2_mmu.stage2_tlb.domainFaults            0                       # Number of TLB faults due to domain restrictions
system.cpu.dtb.stage2_mmu.stage2_tlb.permsFaults            0                       # Number of TLB faults due to permissions restrictions
system.cpu.dtb.stage2_mmu.stage2_tlb.readAccesses            0                       # DTB read accesses
system.cpu.dtb.stage2_mmu.stage2_tlb.writeAccesses            0                       # DTB write accesses
system.cpu.dtb.stage2_mmu.stage2_tlb.instAccesses            0                       # ITB inst accesses
system.cpu.dtb.stage2_mmu.stage2_tlb.hits            0                       # Total TLB (inst and data) hits
system.cpu.dtb.stage2_mmu.stage2_tlb.misses            0                       # Total TLB (inst and data) misses
system.cpu.dtb.stage2_mmu.stage2_tlb.accesses            0                       # Total TLB (inst and data) accesses
system.cpu.dtb.stage2_mmu.stage2_tlb.walker.walks            0                       # Table walker walks requested
system.cpu.dtb.stage2_mmu.stage2_tlb.walker.requestOrigin_Requested::Data            0                       # Table walker requests started/completed, data/inst
system.cpu.dtb.stage2_mmu.stage2_tlb.walker.requestOrigin_Requested::Inst            0                       # Table walker requests started/completed, data/inst
system.cpu.dtb.stage2_mmu.stage2_tlb.walker.requestOrigin_Requested::total            0                       # Table walker requests started/completed, data/inst
system.cpu.dtb.stage2_mmu.stage2_tlb.walker.requestOrigin_Completed::Data            0                       # Table walker requests started/completed, data/inst
system.cpu.dtb.stage2_mmu.stage2_tlb.walker.requestOrigin_Completed::Inst            0                       # Table walker requests started/completed, data/inst
system.cpu.dtb.stage2_mmu.stage2_tlb.walker.requestOrigin_Completed::total            0                       # Table walker requests started/completed, data/inst
system.cpu.dtb.stage2_mmu.stage2_tlb.walker.requestOrigin::total            0                       # Table walker requests started/completed, data/inst
system.cpu.dtb.stage2_mmu.stage2_tlb.walker.power_state.pwrStateResidencyTicks::UNDEFINED 118816520000                       # Cumulative time (in ticks) in various power states
system.cpu.dtb.walker.walks                         0                       # Table walker walks requested
system.cpu.dtb.walker.requestOrigin_Requested::Data            0                       # Table walker requests started/completed, data/inst
system.cpu.dtb.walker.requestOrigin_Requested::Inst            0                       # Table walker requests started/completed, data/inst
system.cpu.dtb.walker.requestOrigin_Requested::total            0                       # Table walker requests started/completed, data/inst
system.cpu.dtb.walker.requestOrigin_Completed::Data            0                       # Table walker requests started/completed, data/inst
system.cpu.dtb.walker.requestOrigin_Completed::Inst            0                       # Table walker requests started/completed, data/inst
system.cpu.dtb.walker.requestOrigin_Completed::total            0                       # Table walker requests started/completed, data/inst
system.cpu.dtb.walker.requestOrigin::total            0                       # Table walker requests started/completed, data/inst
system.cpu.dtb.walker.power_state.pwrStateResidencyTicks::UNDEFINED 118816520000                       # Cumulative time (in ticks) in various power states
system.cpu.fetch2.intInstructions            48864235                       # Number of integer instructions successfully decoded
system.cpu.fetch2.fpInstructions                    0                       # Number of floating point instructions successfully decoded
system.cpu.fetch2.vecInstructions                   0                       # Number of SIMD instructions successfully decoded
system.cpu.fetch2.loadInstructions           40551785                       # Number of memory load instructions successfully decoded
system.cpu.fetch2.storeInstructions           6265779                       # Number of memory store instructions successfully decoded
system.cpu.fetch2.amoInstructions                   0                       # Number of memory atomic instructions successfully decoded
system.cpu.icache.demand_hits::.cpu.inst     17281165                       # number of demand (read+write) hits
system.cpu.icache.demand_hits::total         17281165                       # number of demand (read+write) hits
system.cpu.icache.overall_hits::.cpu.inst     17281165                       # number of overall hits
system.cpu.icache.overall_hits::total        17281165                       # number of overall hits
system.cpu.icache.demand_misses::.cpu.inst         6975                       # number of demand (read+write) misses
system.cpu.icache.demand_misses::total           6975                       # number of demand (read+write) misses
system.cpu.icache.overall_misses::.cpu.inst         6975                       # number of overall misses
system.cpu.icache.overall_misses::total          6975                       # number of overall misses
system.cpu.icache.demand_miss_latency::.cpu.inst    283102000                       # number of demand (read+write) miss cycles
system.cpu.icache.demand_miss_latency::total    283102000                       # number of demand (read+write) miss cycles
system.cpu.icache.overall_miss_latency::.cpu.inst    283102000                       # number of overall miss cycles
system.cpu.icache.overall_miss_latency::total    283102000                       # number of overall miss cycles
system.cpu.icache.demand_accesses::.cpu.inst     17288140                       # number of demand (read+write) accesses
system.cpu.icache.demand_accesses::total     17288140                       # number of demand (read+write) accesses
system.cpu.icache.overall_accesses::.cpu.inst     17288140                       # number of overall (read+write) accesses
system.cpu.icache.overall_accesses::total     17288140                       # number of overall (read+write) accesses
system.cpu.icache.demand_miss_rate::.cpu.inst     0.000403                       # miss rate for demand accesses
system.cpu.icache.demand_miss_rate::total     0.000403                       # miss rate for demand accesses
system.cpu.icache.overall_miss_rate::.cpu.inst     0.000403                       # miss rate for overall accesses
system.cpu.icache.overall_miss_rate::total     0.000403                       # miss rate for overall accesses
system.cpu.icache.demand_avg_miss_latency::.cpu.inst 40588.100358                       # average overall miss latency
system.cpu.icache.demand_avg_miss_latency::total 40588.100358                       # average overall miss latency
system.cpu.icache.overall_avg_miss_latency::.cpu.inst 40588.100358                       # average overall miss latency
system.cpu.icache.overall_avg_miss_latency::total 40588.100358                       # average overall miss latency
system.cpu.icache.blocked_cycles::no_mshrs            0                       # number of cycles access was blocked
system.cpu.icache.blocked_cycles::no_targets            0                       # number of cycles access was blocked
system.cpu.icache.blocked::no_mshrs                 0                       # number of cycles access was blocked
system.cpu.icache.blocked::no_targets               0                       # number of cycles access was blocked
system.cpu.icache.avg_blocked_cycles::no_mshrs          nan                       # average number of cycles each access was blocked
system.cpu.icache.avg_blocked_cycles::no_targets          nan                       # average number of cycles each access was blocked
system.cpu.icache.writebacks::.writebacks         6160                       # number of writebacks
system.cpu.icache.writebacks::total              6160                       # number of writebacks
system.cpu.icache.demand_mshr_misses::.cpu.inst         6975                       # number of demand (read+write) MSHR misses
system.cpu.icache.demand_mshr_misses::total         6975                       # number of demand (read+write) MSHR misses
system.cpu.icache.overall_mshr_misses::.cpu.inst         6975                       # number of overall MSHR misses
system.cpu.icache.overall_mshr_misses::total         6975                       # number of overall MSHR misses
system.cpu.icache.demand_mshr_miss_latency::.cpu.inst    269152000                       # number of demand (read+write) MSHR miss cycles
system.cpu.icache.demand_mshr_miss_latency::total    269152000                       # number of demand (read+write) MSHR miss cycles
system.cpu.icache.overall_mshr_miss_latency::.cpu.inst    269152000                       # number of overall MSHR miss cycles
system.cpu.icache.overall_mshr_miss_latency::total    269152000                       # number of overall MSHR miss cycles
system.cpu.icache.demand_mshr_miss_rate::.cpu.inst     0.000403                       # mshr miss rate for demand accesses
system.cpu.icache.demand_mshr_miss_rate::total     0.000403                       # mshr miss rate for demand accesses
system.cpu.icache.overall_mshr_miss_rate::.cpu.inst     0.000403                       # mshr miss rate for overall accesses
system.cpu.icache.overall_mshr_miss_rate::total     0.000403                       # mshr miss rate for overall accesses
system.cpu.icache.demand_avg_mshr_miss_latency::.cpu.inst 38588.100358                       # average overall mshr miss latency
system.cpu.icache.demand_avg_mshr_miss_latency::total 38588.100358                       # average overall mshr miss latency
system.cpu.icache.overall_avg_mshr_miss_latency::.cpu.inst 38588.100358                       # average overall mshr miss latency
system.cpu.icache.overall_avg_mshr_miss_latency::total 38588.100358                       # average overall mshr miss latency
system.cpu.icache.replacements                   6160                       # number of replacements
system.cpu.icache.ReadReq_hits::.cpu.inst     17281165                       # number of ReadReq hits
system.cpu.icache.ReadReq_hits::total        17281165                       # number of ReadReq hits
system.cpu.icache.ReadReq_misses::.cpu.inst         6975                       # number of ReadReq misses
system.cpu.icache.ReadReq_misses::total          6975                       # number of ReadReq misses
system.cpu.icache.ReadReq_miss_latency::.cpu.inst    283102000                       # number of ReadReq miss cycles
system.cpu.icache.ReadReq_miss_latency::total    283102000                       # number of ReadReq miss cycles
system.cpu.icache.ReadReq_accesses::.cpu.inst     17288140                       # number of ReadReq accesses(hits+misses)
system.cpu.icache.ReadReq_accesses::total     17288140                       # number of ReadReq accesses(hits+misses)
system.cpu.icache.ReadReq_miss_rate::.cpu.inst     0.000403                       # miss rate for ReadReq accesses
system.cpu.icache.ReadReq_miss_rate::total     0.000403                       # miss rate for ReadReq accesses
system.cpu.icache.ReadReq_avg_miss_latency::.cpu.inst 40588.100358                       # average ReadReq miss latency
system.cpu.icache.ReadReq_avg_miss_latency::total 40588.100358                       # average ReadReq miss latency
system.cpu.icache.ReadReq_mshr_misses::.cpu.inst         6975                       # number of ReadReq MSHR misses
system.cpu.icache.ReadReq_mshr_misses::total         6975                       # number of ReadReq MSHR misses
system.cpu.icache.ReadReq_mshr_miss_latency::.cpu.inst    269152000                       # number of ReadReq MSHR miss cycles
system.cpu.icache.ReadReq_mshr_miss_latency::total    269152000                       # number of ReadReq MSHR miss cycles
system.cpu.icache.ReadReq_mshr_miss_rate::.cpu.inst     0.000403                       # mshr miss rate for ReadReq accesses
system.cpu.icache.ReadReq_mshr_miss_rate::total     0.000403                       # mshr miss rate for ReadReq accesses
system.cpu.icache.ReadReq_avg_mshr_miss_latency::.cpu.inst 38588.100358                       # average ReadReq mshr miss latency
system.cpu.icache.ReadReq_avg_mshr_miss_latency::total 38588.100358                       # average ReadReq mshr miss latency
system.cpu.icache.power_state.pwrStateResidencyTicks::UNDEFINED 118816520000                       # Cumulative time (in ticks) in various power states
system.cpu.icache.tags.tagsinuse           812.488030                       # Cycle average of tags in use
system.cpu.icache.tags.total_refs            17288140                       # Total number of references to valid blocks.
system.cpu.icache.tags.sampled_refs              6975                       # Sample count of references to valid blocks.
system.cpu.icache.tags.avg_refs           2478.586380                       # Average number of references to valid blocks.
system.cpu.icache.tags.warmup_cycle            108000                       # Cycle when the warmup percentage was hit.
system.cpu.icache.tags.occ_blocks::.cpu.inst   812.488030                       # Average occupied blocks per requestor
system.cpu.icache.tags.occ_percent::.cpu.inst     0.793445                       # Average percentage of cache occupancy
system.cpu.icache.tags.occ_percent::total     0.793445                       # Average percentage of cache occupancy
system.cpu.icache.tags.occ_task_id_blocks::1024          815                       # Occupied blocks per task id
system.cpu.icache.tags.age_task_id_blocks_1024::2            2                       # Occupied blocks per task id
system.cpu.icache.tags.age_task_id_blocks_1024::3            2                       # Occupied blocks per task id
system.cpu.icache.tags.age_task_id_blocks_1024::4          811                       # Occupied blocks per task id
system.cpu.icache.tags.occ_task_id_percent::1024     0.795898                       # Percentage of cache occupancy per task id
system.cpu.icache.tags.tag_accesses          17295115                       # Number of tag accesses
system.cpu.icache.tags.data_accesses         17295115                       # Number of data accesses
system.cpu.icache.tags.power_state.pwrStateResidencyTicks::UNDEFINED 118816520000                       # Cumulative time (in ticks) in various power states
system.cpu.itb.instHits                             0                       # ITB inst hits
system.cpu.itb.instMisses                           0                       # ITB inst misses
system.cpu.itb.readHits                             0                       # DTB read hits
system.cpu.itb.readMisses                           0                       # DTB read misses
system.cpu.itb.writeHits                            0                       # DTB write hits
system.cpu.itb.writeMisses                          0                       # DTB write misses
system.cpu.itb.inserts                              0                       # Number of times an entry is inserted into the TLB
system.cpu.itb.flushTlb                             0                       # Number of times complete TLB was flushed
system.cpu.itb.flushTlbMva                          0                       # Number of times TLB was flushed by MVA
system.cpu.itb.flushTlbMvaAsid                      0                       # Number of times TLB was flushed by MVA & ASID
system.cpu.itb.flushTlbAsid                         0                       # Number of times TLB was flushed by ASID
system.cpu.itb.flushedEntries                       0                       # Number of entries that have been flushed from TLB
system.cpu.itb.alignFaults                          0                       # Number of TLB faults due to alignment restrictions
system.cpu.itb.prefetchFaults                       0                       # Number of TLB faults due to prefetch
system.cpu.itb.domainFaults                         0                       # Number of TLB faults due to domain restrictions
system.cpu.itb.permsFaults                          0                       # Number of TLB faults due to permissions restrictions
system.cpu.itb.readAccesses                         0                       # DTB read accesses
system.cpu.itb.writeAccesses                        0                       # DTB write accesses
system.cpu.itb.instAccesses                         0                       # ITB inst accesses
system.cpu.itb.hits                                 0                       # Total TLB (inst and data) hits
system.cpu.itb.misses                               0                       # Total TLB (inst and data) misses
system.cpu.itb.accesses                             0                       # Total TLB (inst and data) accesses
system.cpu.itb.stage2_mmu.stage2_tlb.instHits            0                       # ITB inst hits
system.cpu.itb.stage2_mmu.stage2_tlb.instMisses            0                       # ITB inst misses
system.cpu.itb.stage2_mmu.stage2_tlb.readHits            0                       # DTB read hits
system.cpu.itb.stage2_mmu.stage2_tlb.readMisses            0                       # DTB read misses
system.cpu.itb.stage2_mmu.stage2_tlb.writeHits            0                       # DTB write hits
system.cpu.itb.stage2_mmu.stage2_tlb.writeMisses            0                       # DTB write misses
system.cpu.itb.stage2_mmu.stage2_tlb.inserts            0                       # Number of times an entry is inserted into the TLB
system.cpu.itb.stage2_mmu.stage2_tlb.flushTlb            0                       # Number of times complete TLB was flushed
system.cpu.itb.stage2_mmu.stage2_tlb.flushTlbMva            0                       # Number of times TLB was flushed by MVA
system.cpu.itb.stage2_mmu.stage2_tlb.flushTlbMvaAsid            0                       # Number of times TLB was flushed by MVA & ASID
system.cpu.itb.stage2_mmu.stage2_tlb.flushTlbAsid            0                       # Number of times TLB was flushed by ASID
system.cpu.itb.stage2_mmu.stage2_tlb.flushedEntries            0                       # Number of entries that have been flushed from TLB
system.cpu.itb.stage2_mmu.stage2_tlb.alignFaults            0                       # Number of TLB faults due to alignment restrictions
system.cpu.itb.stage2_mmu.stage2_tlb.prefetchFaults            0                       # Number of TLB faults due to prefetch
system.cpu.itb.stage2_mmu.stage2_tlb.domainFaults            0                       # Number of TLB faults due to domain restrictions
system.cpu.itb.stage2_mmu.stage2_tlb.permsFaults            0                       # Number of TLB faults due to permissions restrictions
system.cpu.itb.stage2_mmu.stage2_tlb.readAccesses            0                       # DTB read accesses
system.cpu.itb.stage2_mmu.stage2_tlb.writeAccesses            0                       # DTB write accesses
system.cpu.itb.stage2_mmu.stage2_tlb.instAccesses            0                       # ITB inst accesses
system.cpu.itb.stage2_mmu.stage2_tlb.hits            0                       # Total TLB (inst and data) hits
system.cpu.itb.stage2_mmu.stage2_tlb.misses            0                       # Total TLB (inst and data) misses
system.cpu.itb.stage2_mmu.stage2_tlb.accesses            0                       # Total TLB (inst and data) accesses
system.cpu.itb.stage2_mmu.stage2_tlb.walker.walks            0                       # Table walker walks requested
system.cpu.itb.stage2_mmu.stage2_tlb.walker.requestOrigin_Requested::Data            0                       # Table walker requests started/completed, data/inst
system.cpu.itb.stage2_mmu.stage2_tlb.walker.requestOrigin_Requested::Inst            0                       # Table walker requests started/completed, data/inst
system.cpu.itb.stage2_mmu.stage2_tlb.walker.requestOrigin_Requested::total            0                       # Table walker requests started/completed, data/inst
system.cpu.itb.stage2_mmu.stage2_tlb.walker.requestOrigin_Completed::Data            0                       # Table walker requests started/completed, data/inst
system.cpu.itb.stage2_mmu.stage2_tlb.walker.requestOrigin_Completed::Inst            0                       # Table walker requests started/completed, data/inst
system.cpu.itb.stage2_mmu.stage2_tlb.walker.requestOrigin_Completed::total            0                       # Table walker requests started/completed, data/inst
system.cpu.itb.stage2_mmu.stage2_tlb.walker.requestOrigin::total            0                       # Table walker requests started/completed, data/inst
system.cpu.itb.stage2_mmu.stage2_tlb.walker.power_state.pwrStateResidencyTicks::UNDEFINED 118816520000                       # Cumulative time (in ticks) in various power states
system.cpu.itb.walker.walks                         0                       # Table walker walks requested
system.cpu.itb.walker.requestOrigin_Requested::Data            0                       # Table walker requests started/completed, data/inst
system.cpu.itb.walker.requestOrigin_Requested::Inst            0                       # Table walker requests started/completed, data/inst
system.cpu.itb.walker.requestOrigin_Requested::total            0                       # Table walker requests started/completed, data/inst
system.cpu.itb.walker.requestOrigin_Completed::Data            0                       # Table walker requests started/completed, data/inst
system.cpu.itb.walker.requestOrigin_Completed::Inst            0                       # Table walker requests started/completed, data/inst
system.cpu.itb.walker.requestOrigin_Completed::total            0                       # Table walker requests started/completed, data/inst
system.cpu.itb.walker.requestOrigin::total            0                       # Table walker requests started/completed, data/inst
system.cpu.itb.walker.power_state.pwrStateResidencyTicks::UNDEFINED 118816520000                       # Cumulative time (in ticks) in various power states
system.cpu.power_state.pwrStateResidencyTicks::ON 118816520000                       # Cumulative time (in ticks) in various power states
system.cpu.thread_0.numInsts                100000000                       # Number of Instructions committed
system.cpu.thread_0.numOps                  101102842                       # Number of Ops committed
system.cpu.thread_0.numMemRefs                      0                       # Number of Memory References
system.cpu_clk_domain.clock                      1000                       # Clock period in ticks
system.cpu_voltage_domain.voltage                   1                       # Voltage in Volts
system.l2.demand_hits::.cpu.inst                 5669                       # number of demand (read+write) hits
system.l2.demand_hits::.cpu.data                50316                       # number of demand (read+write) hits
system.l2.demand_hits::total                    55985                       # number of demand (read+write) hits
system.l2.overall_hits::.cpu.inst                5669                       # number of overall hits
system.l2.overall_hits::.cpu.data               50316                       # number of overall hits
system.l2.overall_hits::total                   55985                       # number of overall hits
system.l2.demand_misses::.cpu.inst               1306                       # number of demand (read+write) misses
system.l2.demand_misses::.cpu.data               4201                       # number of demand (read+write) misses
system.l2.demand_misses::total                   5507                       # number of demand (read+write) misses
system.l2.overall_misses::.cpu.inst              1306                       # number of overall misses
system.l2.overall_misses::.cpu.data              4201                       # number of overall misses
system.l2.overall_misses::total                  5507                       # number of overall misses
system.l2.demand_miss_latency::.cpu.inst    128018000                       # number of demand (read+write) miss cycles
system.l2.demand_miss_latency::.cpu.data    414366000                       # number of demand (read+write) miss cycles
system.l2.demand_miss_latency::total        542384000                       # number of demand (read+write) miss cycles
system.l2.overall_miss_latency::.cpu.inst    128018000                       # number of overall miss cycles
system.l2.overall_miss_latency::.cpu.data    414366000                       # number of overall miss cycles
system.l2.overall_miss_latency::total       542384000                       # number of overall miss cycles
system.l2.demand_accesses::.cpu.inst             6975                       # number of demand (read+write) accesses
system.l2.demand_accesses::.cpu.data            54517                       # number of demand (read+write) accesses
system.l2.demand_accesses::total                61492                       # number of demand (read+write) accesses
system.l2.overall_accesses::.cpu.inst            6975                       # number of overall (read+write) accesses
system.l2.overall_accesses::.cpu.data           54517                       # number of overall (read+write) accesses
system.l2.overall_accesses::total               61492                       # number of overall (read+write) accesses
system.l2.demand_miss_rate::.cpu.inst        0.187240                       # miss rate for demand accesses
system.l2.demand_miss_rate::.cpu.data        0.077059                       # miss rate for demand accesses
system.l2.demand_miss_rate::total            0.089556                       # miss rate for demand accesses
system.l2.overall_miss_rate::.cpu.inst       0.187240                       # miss rate for overall accesses
system.l2.overall_miss_rate::.cpu.data       0.077059                       # miss rate for overall accesses
system.l2.overall_miss_rate::total           0.089556                       # miss rate for overall accesses
system.l2.demand_avg_miss_latency::.cpu.inst 98022.970904                       # average overall miss latency
system.l2.demand_avg_miss_latency::.cpu.data 98635.086884                       # average overall miss latency
system.l2.demand_avg_miss_latency::total 98489.921918                       # average overall miss latency
system.l2.overall_avg_miss_latency::.cpu.inst 98022.970904                       # average overall miss latency
system.l2.overall_avg_miss_latency::.cpu.data 98635.086884                       # average overall miss latency
system.l2.overall_avg_miss_latency::total 98489.921918                       # average overall miss latency
system.l2.blocked_cycles::no_mshrs                  0                       # number of cycles access was blocked
system.l2.blocked_cycles::no_targets                0                       # number of cycles access was blocked
system.l2.blocked::no_mshrs                         0                       # number of cycles access was blocked
system.l2.blocked::no_targets                       0                       # number of cycles access was blocked
system.l2.avg_blocked_cycles::no_mshrs            nan                       # average number of cycles each access was blocked
system.l2.avg_blocked_cycles::no_targets          nan                       # average number of cycles each access was blocked
system.l2.demand_mshr_hits::.cpu.inst               1                       # number of demand (read+write) MSHR hits
system.l2.demand_mshr_hits::.cpu.data               6                       # number of demand (read+write) MSHR hits
system.l2.demand_mshr_hits::total                   7                       # number of demand (read+write) MSHR hits
system.l2.overall_mshr_hits::.cpu.inst              1                       # number of overall MSHR hits
system.l2.overall_mshr_hits::.cpu.data              6                       # number of overall MSHR hits
system.l2.overall_mshr_hits::total                  7                       # number of overall MSHR hits
system.l2.demand_mshr_misses::.cpu.inst          1305                       # number of demand (read+write) MSHR misses
system.l2.demand_mshr_misses::.cpu.data          4195                       # number of demand (read+write) MSHR misses
system.l2.demand_mshr_misses::total              5500                       # number of demand (read+write) MSHR misses
system.l2.overall_mshr_misses::.cpu.inst         1305                       # number of overall MSHR misses
system.l2.overall_mshr_misses::.cpu.data         4195                       # number of overall MSHR misses
system.l2.overall_mshr_misses::total             5500                       # number of overall MSHR misses
system.l2.demand_mshr_miss_latency::.cpu.inst    101835000                       # number of demand (read+write) MSHR miss cycles
system.l2.demand_mshr_miss_latency::.cpu.data    330015000                       # number of demand (read+write) MSHR miss cycles
system.l2.demand_mshr_miss_latency::total    431850000                       # number of demand (read+write) MSHR miss cycles
system.l2.overall_mshr_miss_latency::.cpu.inst    101835000                       # number of overall MSHR miss cycles
system.l2.overall_mshr_miss_latency::.cpu.data    330015000                       # number of overall MSHR miss cycles
system.l2.overall_mshr_miss_latency::total    431850000                       # number of overall MSHR miss cycles
system.l2.demand_mshr_miss_rate::.cpu.inst     0.187097                       # mshr miss rate for demand accesses
system.l2.demand_mshr_miss_rate::.cpu.data     0.076948                       # mshr miss rate for demand accesses
system.l2.demand_mshr_miss_rate::total       0.089443                       # mshr miss rate for demand accesses
system.l2.overall_mshr_miss_rate::.cpu.inst     0.187097                       # mshr miss rate for overall accesses
system.l2.overall_mshr_miss_rate::.cpu.data     0.076948                       # mshr miss rate for overall accesses
system.l2.overall_mshr_miss_rate::total      0.089443                       # mshr miss rate for overall accesses
system.l2.demand_avg_mshr_miss_latency::.cpu.inst 78034.482759                       # average overall mshr miss latency
system.l2.demand_avg_mshr_miss_latency::.cpu.data 78668.653159                       # average overall mshr miss latency
system.l2.demand_avg_mshr_miss_latency::total 78518.181818                       # average overall mshr miss latency
system.l2.overall_avg_mshr_miss_latency::.cpu.inst 78034.482759                       # average overall mshr miss latency
system.l2.overall_avg_mshr_miss_latency::.cpu.data 78668.653159                       # average overall mshr miss latency
system.l2.overall_avg_mshr_miss_latency::total 78518.181818                       # average overall mshr miss latency
system.l2.replacements                            271                       # number of replacements
system.l2.WritebackDirty_hits::.writebacks        50683                       # number of WritebackDirty hits
system.l2.WritebackDirty_hits::total            50683                       # number of WritebackDirty hits
system.l2.WritebackDirty_accesses::.writebacks        50683                       # number of WritebackDirty accesses(hits+misses)
system.l2.WritebackDirty_accesses::total        50683                       # number of WritebackDirty accesses(hits+misses)
system.l2.WritebackClean_hits::.writebacks         5618                       # number of WritebackClean hits
system.l2.WritebackClean_hits::total             5618                       # number of WritebackClean hits
system.l2.WritebackClean_accesses::.writebacks         5618                       # number of WritebackClean accesses(hits+misses)
system.l2.WritebackClean_accesses::total         5618                       # number of WritebackClean accesses(hits+misses)
system.l2.CleanEvict_mshr_misses::.writebacks           54                       # number of CleanEvict MSHR misses
system.l2.CleanEvict_mshr_misses::total            54                       # number of CleanEvict MSHR misses
system.l2.CleanEvict_mshr_miss_rate::.writebacks          inf                       # mshr miss rate for CleanEvict accesses
system.l2.CleanEvict_mshr_miss_rate::total          inf                       # mshr miss rate for CleanEvict accesses
system.l2.ReadExReq_hits::.cpu.data             27970                       # number of ReadExReq hits
system.l2.ReadExReq_hits::total                 27970                       # number of ReadExReq hits
system.l2.ReadExReq_misses::.cpu.data            3665                       # number of ReadExReq misses
system.l2.ReadExReq_misses::total                3665                       # number of ReadExReq misses
system.l2.ReadExReq_miss_latency::.cpu.data    360984000                       # number of ReadExReq miss cycles
system.l2.ReadExReq_miss_latency::total     360984000                       # number of ReadExReq miss cycles
system.l2.ReadExReq_accesses::.cpu.data         31635                       # number of ReadExReq accesses(hits+misses)
system.l2.ReadExReq_accesses::total             31635                       # number of ReadExReq accesses(hits+misses)
system.l2.ReadExReq_miss_rate::.cpu.data     0.115853                       # miss rate for ReadExReq accesses
system.l2.ReadExReq_miss_rate::total         0.115853                       # miss rate for ReadExReq accesses
system.l2.ReadExReq_avg_miss_latency::.cpu.data 98494.952251                       # average ReadExReq miss latency
system.l2.ReadExReq_avg_miss_latency::total 98494.952251                       # average ReadExReq miss latency
system.l2.ReadExReq_mshr_misses::.cpu.data         3665                       # number of ReadExReq MSHR misses
system.l2.ReadExReq_mshr_misses::total           3665                       # number of ReadExReq MSHR misses
system.l2.ReadExReq_mshr_miss_latency::.cpu.data    287684000                       # number of ReadExReq MSHR miss cycles
system.l2.ReadExReq_mshr_miss_latency::total    287684000                       # number of ReadExReq MSHR miss cycles
system.l2.ReadExReq_mshr_miss_rate::.cpu.data     0.115853                       # mshr miss rate for ReadExReq accesses
system.l2.ReadExReq_mshr_miss_rate::total     0.115853                       # mshr miss rate for ReadExReq accesses
system.l2.ReadExReq_avg_mshr_miss_latency::.cpu.data 78494.952251                       # average ReadExReq mshr miss latency
system.l2.ReadExReq_avg_mshr_miss_latency::total 78494.952251                       # average ReadExReq mshr miss latency
system.l2.ReadCleanReq_hits::.cpu.inst           5669                       # number of ReadCleanReq hits
system.l2.ReadCleanReq_hits::total               5669                       # number of ReadCleanReq hits
system.l2.ReadCleanReq_misses::.cpu.inst         1306                       # number of ReadCleanReq misses
system.l2.ReadCleanReq_misses::total             1306                       # number of ReadCleanReq misses
system.l2.ReadCleanReq_miss_latency::.cpu.inst    128018000                       # number of ReadCleanReq miss cycles
system.l2.ReadCleanReq_miss_latency::total    128018000                       # number of ReadCleanReq miss cycles
system.l2.ReadCleanReq_accesses::.cpu.inst         6975                       # number of ReadCleanReq accesses(hits+misses)
system.l2.ReadCleanReq_accesses::total           6975                       # number of ReadCleanReq accesses(hits+misses)
system.l2.ReadCleanReq_miss_rate::.cpu.inst     0.187240                       # miss rate for ReadCleanReq accesses
system.l2.ReadCleanReq_miss_rate::total      0.187240                       # miss rate for ReadCleanReq accesses
system.l2.ReadCleanReq_avg_miss_latency::.cpu.inst 98022.970904                       # average ReadCleanReq miss latency
system.l2.ReadCleanReq_avg_miss_latency::total 98022.970904                       # average ReadCleanReq miss latency
system.l2.ReadCleanReq_mshr_hits::.cpu.inst            1                       # number of ReadCleanReq MSHR hits
system.l2.ReadCleanReq_mshr_hits::total             1                       # number of ReadCleanReq MSHR hits
system.l2.ReadCleanReq_mshr_misses::.cpu.inst         1305                       # number of ReadCleanReq MSHR misses
system.l2.ReadCleanReq_mshr_misses::total         1305                       # number of ReadCleanReq MSHR misses
system.l2.ReadCleanReq_mshr_miss_latency::.cpu.inst    101835000                       # number of ReadCleanReq MSHR miss cycles
system.l2.ReadCleanReq_mshr_miss_latency::total    101835000                       # number of ReadCleanReq MSHR miss cycles
system.l2.ReadCleanReq_mshr_miss_rate::.cpu.inst     0.187097                       # mshr miss rate for ReadCleanReq accesses
system.l2.ReadCleanReq_mshr_miss_rate::total     0.187097                       # mshr miss rate for ReadCleanReq accesses
system.l2.ReadCleanReq_avg_mshr_miss_latency::.cpu.inst 78034.482759                       # average ReadCleanReq mshr miss latency
system.l2.ReadCleanReq_avg_mshr_miss_latency::total 78034.482759                       # average ReadCleanReq mshr miss latency
system.l2.ReadSharedReq_hits::.cpu.data         22346                       # number of ReadSharedReq hits
system.l2.ReadSharedReq_hits::total             22346                       # number of ReadSharedReq hits
system.l2.ReadSharedReq_misses::.cpu.data          536                       # number of ReadSharedReq misses
system.l2.ReadSharedReq_misses::total             536                       # number of ReadSharedReq misses
system.l2.ReadSharedReq_miss_latency::.cpu.data     53382000                       # number of ReadSharedReq miss cycles
system.l2.ReadSharedReq_miss_latency::total     53382000                       # number of ReadSharedReq miss cycles
system.l2.ReadSharedReq_accesses::.cpu.data        22882                       # number of ReadSharedReq accesses(hits+misses)
system.l2.ReadSharedReq_accesses::total         22882                       # number of ReadSharedReq accesses(hits+misses)
system.l2.ReadSharedReq_miss_rate::.cpu.data     0.023425                       # miss rate for ReadSharedReq accesses
system.l2.ReadSharedReq_miss_rate::total     0.023425                       # miss rate for ReadSharedReq accesses
system.l2.ReadSharedReq_avg_miss_latency::.cpu.data 99593.283582                       # average ReadSharedReq miss latency
system.l2.ReadSharedReq_avg_miss_latency::total 99593.283582                       # average ReadSharedReq miss latency
system.l2.ReadSharedReq_mshr_hits::.cpu.data            6                       # number of ReadSharedReq MSHR hits
system.l2.ReadSharedReq_mshr_hits::total            6                       # number of ReadSharedReq MSHR hits
system.l2.ReadSharedReq_mshr_misses::.cpu.data          530                       # number of ReadSharedReq MSHR misses
system.l2.ReadSharedReq_mshr_misses::total          530                       # number of ReadSharedReq MSHR misses
system.l2.ReadSharedReq_mshr_miss_latency::.cpu.data     42331000                       # number of ReadSharedReq MSHR miss cycles
system.l2.ReadSharedReq_mshr_miss_latency::total     42331000                       # number of ReadSharedReq MSHR miss cycles
system.l2.ReadSharedReq_mshr_miss_rate::.cpu.data     0.023162                       # mshr miss rate for ReadSharedReq accesses
system.l2.ReadSharedReq_mshr_miss_rate::total     0.023162                       # mshr miss rate for ReadSharedReq accesses
system.l2.ReadSharedReq_avg_mshr_miss_latency::.cpu.data 79869.811321                       # average ReadSharedReq mshr miss latency
system.l2.ReadSharedReq_avg_mshr_miss_latency::total 79869.811321                       # average ReadSharedReq mshr miss latency
system.l2.power_state.pwrStateResidencyTicks::UNDEFINED 118816520000                       # Cumulative time (in ticks) in various power states
system.l2.tags.tagsinuse                  5073.259310                       # Cycle average of tags in use
system.l2.tags.total_refs                      118711                       # Total number of references to valid blocks.
system.l2.tags.sampled_refs                      5538                       # Sample count of references to valid blocks.
system.l2.tags.avg_refs                     21.435717                       # Average number of references to valid blocks.
system.l2.tags.warmup_cycle                     87000                       # Cycle when the warmup percentage was hit.
system.l2.tags.occ_blocks::.writebacks      31.576525                       # Average occupied blocks per requestor
system.l2.tags.occ_blocks::.cpu.inst      1133.284068                       # Average occupied blocks per requestor
system.l2.tags.occ_blocks::.cpu.data      3908.398717                       # Average occupied blocks per requestor
system.l2.tags.occ_percent::.writebacks      0.003855                       # Average percentage of cache occupancy
system.l2.tags.occ_percent::.cpu.inst        0.138340                       # Average percentage of cache occupancy
system.l2.tags.occ_percent::.cpu.data        0.477099                       # Average percentage of cache occupancy
system.l2.tags.occ_percent::total            0.619294                       # Average percentage of cache occupancy
system.l2.tags.occ_task_id_blocks::1024          5267                       # Occupied blocks per task id
system.l2.tags.age_task_id_blocks_1024::4         5267                       # Occupied blocks per task id
system.l2.tags.occ_task_id_percent::1024     0.642944                       # Percentage of cache occupancy per task id
system.l2.tags.tag_accesses                    243082                       # Number of tag accesses
system.l2.tags.data_accesses                   243082                       # Number of data accesses
system.l2.tags.power_state.pwrStateResidencyTicks::UNDEFINED 118816520000                       # Cumulative time (in ticks) in various power states
system.mem_ctrls.avgPriority_.cpu.inst::samples      1305.00                       # Average QoS priority value for accepted requests
system.mem_ctrls.avgPriority_.cpu.data::samples      4195.00                       # Average QoS priority value for accepted requests
system.mem_ctrls.priorityMinLatency      0.000000018750                       # per QoS priority minimum request to response latency (s)
system.mem_ctrls.priorityMaxLatency      0.000000578000                       # per QoS priority maximum request to response latency (s)
system.mem_ctrls.numReadWriteTurnArounds            0                       # Number of turnarounds from READ to WRITE
system.mem_ctrls.numWriteReadTurnArounds            0                       # Number of turnarounds from WRITE to READ
system.mem_ctrls.numStayReadState               41512                       # Number of times bus staying in READ state
system.mem_ctrls.numStayWriteState                  0                       # Number of times bus staying in WRITE state
system.mem_ctrls.readReqs                        5500                       # Number of read requests accepted
system.mem_ctrls.writeReqs                          0                       # Number of write requests accepted
system.mem_ctrls.readBursts                      5500                       # Number of controller read bursts, including those serviced by the write queue
system.mem_ctrls.writeBursts                        0                       # Number of controller write bursts, including those merged in the write queue
system.mem_ctrls.servicedByWrQ                      0                       # Number of controller read bursts serviced by the write queue
system.mem_ctrls.mergedWrBursts                     0                       # Number of controller write bursts merged with an existing one
system.mem_ctrls.neitherReadNorWriteReqs            0                       # Number of requests that are neither read nor write
system.mem_ctrls.avgRdQLen                       1.00                       # Average read queue length when enqueuing
system.mem_ctrls.avgWrQLen                       0.00                       # Average write queue length when enqueuing
system.mem_ctrls.numRdRetry                         0                       # Number of times read queue was full causing retry
system.mem_ctrls.numWrRetry                         0                       # Number of times write queue was full causing retry
system.mem_ctrls.readPktSize::0                     0                       # Read request sizes (log2)
system.mem_ctrls.readPktSize::1                     0                       # Read request sizes (log2)
system.mem_ctrls.readPktSize::2                     0                       # Read request sizes (log2)
system.mem_ctrls.readPktSize::3                     0                       # Read request sizes (log2)
[...]
system.mem_ctrls.dram.bw_read::total          2962551                       # Total read bandwidth from this memory (bytes/s)
system.mem_ctrls.dram.bw_inst_read::.cpu.inst       702933                       # Instruction read bandwidth from this memory (bytes/s)
system.mem_ctrls.dram.bw_inst_read::total       702933                       # Instruction read bandwidth from this memory (bytes/s)
system.mem_ctrls.dram.bw_total::.cpu.inst       702933                       # Total bandwidth to/from this memory (bytes/s)
system.mem_ctrls.dram.bw_total::.cpu.data      2259618                       # Total bandwidth to/from this memory (bytes/s)
system.mem_ctrls.dram.bw_total::total         2962551                       # Total bandwidth to/from this memory (bytes/s)
system.mem_ctrls.dram.readBursts                 5500                       # Number of DRAM read bursts
system.mem_ctrls.dram.writeBursts                   0                       # Number of DRAM write bursts
system.mem_ctrls.dram.perBankRdBursts::0          253                       # Per bank write bursts
system.mem_ctrls.dram.perBankRdBursts::1          273                       # Per bank write bursts
system.mem_ctrls.dram.perBankRdBursts::2          243                       # Per bank write bursts
system.mem_ctrls.dram.perBankRdBursts::3          403                       # Per bank write bursts
system.mem_ctrls.dram.perBankRdBursts::4          418                       # Per bank write bursts
system.mem_ctrls.dram.perBankRdBursts::5          374                       # Per bank write bursts
system.mem_ctrls.dram.perBankRdBursts::6          377                       # Per bank write bursts
system.mem_ctrls.dram.perBankRdBursts::7          401                       # Per bank write bursts
system.mem_ctrls.dram.perBankRdBursts::8          359                       # Per bank write bursts
system.mem_ctrls.dram.perBankRdBursts::9          296                       # Per bank write bursts
system.mem_ctrls.dram.perBankRdBursts::10          427                       # Per bank write bursts
system.mem_ctrls.dram.perBankRdBursts::11          288                       # Per bank write bursts
system.mem_ctrls.dram.perBankRdBursts::12          311                       # Per bank write bursts
system.mem_ctrls.dram.perBankRdBursts::13          339                       # Per bank write bursts
system.mem_ctrls.dram.perBankRdBursts::14          401                       # Per bank write bursts
system.mem_ctrls.dram.perBankRdBursts::15          337                       # Per bank write bursts
system.mem_ctrls.dram.perBankWrBursts::0            0                       # Per bank write bursts
system.mem_ctrls.dram.perBankWrBursts::1            0                       # Per bank write bursts
system.mem_ctrls.dram.perBankWrBursts::2            0                       # Per bank write bursts
system.mem_ctrls.dram.perBankWrBursts::3            0                       # Per bank write bursts
system.mem_ctrls.dram.perBankWrBursts::4            0                       # Per bank write bursts
system.mem_ctrls.dram.perBankWrBursts::5            0                       # Per bank write bursts
system.mem_ctrls.dram.perBankWrBursts::6            0                       # Per bank write bursts
system.mem_ctrls.dram.perBankWrBursts::7            0                       # Per bank write bursts
system.mem_ctrls.dram.perBankWrBursts::8            0                       # Per bank write bursts
system.mem_ctrls.dram.perBankWrBursts::9            0                       # Per bank write bursts
system.mem_ctrls.dram.perBankWrBursts::10            0                       # Per bank write bursts
system.mem_ctrls.dram.perBankWrBursts::11            0                       # Per bank write bursts
system.mem_ctrls.dram.perBankWrBursts::12            0                       # Per bank write bursts
system.mem_ctrls.dram.perBankWrBursts::13            0                       # Per bank write bursts
system.mem_ctrls.dram.perBankWrBursts::14            0                       # Per bank write bursts
system.mem_ctrls.dram.perBankWrBursts::15            0                       # Per bank write bursts
system.mem_ctrls.dram.totQLat                46420250                       # Total ticks spent queuing
system.mem_ctrls.dram.totBusLat              27500000                       # Total ticks spent in databus transfers
system.mem_ctrls.dram.totMemAccLat          149545250                       # Total ticks spent from burst creation until serviced by the DRAM
system.mem_ctrls.dram.avgQLat                 8440.05                       # Average queueing delay per DRAM burst
system.mem_ctrls.dram.avgBusLat               5000.00                       # Average bus latency per DRAM burst
system.mem_ctrls.dram.avgMemAccLat           27190.05                       # Average memory access latency per DRAM burst
system.mem_ctrls.dram.readRowHits                3955                       # Number of row buffer hits during reads
system.mem_ctrls.dram.writeRowHits                  0                       # Number of row buffer hits during writes
system.mem_ctrls.dram.readRowHitRate            71.91                       # Row buffer hit rate for reads
system.mem_ctrls.dram.writeRowHitRate             nan                       # Row buffer hit rate for writes
system.mem_ctrls.dram.bytesPerActivate::samples         1545                       # Bytes accessed per row activation
system.mem_ctrls.dram.bytesPerActivate::mean   227.831715                       # Bytes accessed per row activation
system.mem_ctrls.dram.bytesPerActivate::gmean   147.685733                       # Bytes accessed per row activation
system.mem_ctrls.dram.bytesPerActivate::stdev   262.673190                       # Bytes accessed per row activation
system.mem_ctrls.dram.bytesPerActivate::0-127          569     36.83%     36.83% # Bytes accessed per row activation
system.mem_ctrls.dram.bytesPerActivate::128-255          568     36.76%     73.59% # Bytes accessed per row activation
system.mem_ctrls.dram.bytesPerActivate::256-383          164     10.61%     84.21% # Bytes accessed per row activation
system.mem_ctrls.dram.bytesPerActivate::384-511           53      3.43%     87.64% # Bytes accessed per row activation
system.mem_ctrls.dram.bytesPerActivate::512-639           31      2.01%     89.64% # Bytes accessed per row activation
system.mem_ctrls.dram.bytesPerActivate::640-767           27      1.75%     91.39% # Bytes accessed per row activation
system.mem_ctrls.dram.bytesPerActivate::768-895           17      1.10%     92.49% # Bytes accessed per row activation
system.mem_ctrls.dram.bytesPerActivate::896-1023           18      1.17%     93.66% # Bytes accessed per row activation
system.mem_ctrls.dram.bytesPerActivate::1024-1151           98      6.34%    100.00% # Bytes accessed per row activation
system.mem_ctrls.dram.bytesPerActivate::total         1545                       # Bytes accessed per row activation
system.mem_ctrls.dram.bytesRead                352000                       # Total number of bytes read from DRAM
system.mem_ctrls.dram.bytesWritten                  0                       # Total number of bytes written to DRAM
system.mem_ctrls.dram.avgRdBW                2.962551                       # Average DRAM read bandwidth in MiBytes/s
system.mem_ctrls.dram.avgWrBW                       0                       # Average DRAM write bandwidth in MiBytes/s
system.mem_ctrls.dram.peakBW                 12800.00                       # Theoretical peak bandwidth in MiByte/s
system.mem_ctrls.dram.busUtil                    0.02                       # Data bus utilization in percentage
system.mem_ctrls.dram.busUtilRead                0.02                       # Data bus utilization in percentage for reads
system.mem_ctrls.dram.busUtilWrite               0.00                       # Data bus utilization in percentage for writes
system.mem_ctrls.dram.pageHitRate               71.91                       # Row buffer hit rate, read and write combined
system.mem_ctrls.dram.power_state.pwrStateResidencyTicks::UNDEFINED 118816520000                       # Cumulative time (in ticks) in various power states
system.mem_ctrls.dram.rank0.actEnergy         5740560                       # Energy for activate commands per rank (pJ)
system.mem_ctrls.dram.rank0.preEnergy         3051180                       # Energy for precharge commands per rank (pJ)
system.mem_ctrls.dram.rank0.readEnergy       19577880                       # Energy for read commands per rank (pJ)
system.mem_ctrls.dram.rank0.writeEnergy             0                       # Energy for write commands per rank (pJ)
system.mem_ctrls.dram.rank0.refreshEnergy 9378791760.000002                       # Energy for refresh commands per rank (pJ)
system.mem_ctrls.dram.rank0.actBackEnergy   2799712320                       # Energy for active background per rank (pJ)
system.mem_ctrls.dram.rank0.preBackEnergy  43267891200                       # Energy for precharge background per rank (pJ)
system.mem_ctrls.dram.rank0.actPowerDownEnergy            0                       # Energy for active power-down per rank (pJ)
system.mem_ctrls.dram.rank0.prePowerDownEnergy            0                       # Energy for precharge power-down per rank (pJ)
system.mem_ctrls.dram.rank0.selfRefreshEnergy            0                       # Energy for self refresh per rank (pJ)
system.mem_ctrls.dram.rank0.totalEnergy   55474764900                       # Total energy per rank (pJ)
system.mem_ctrls.dram.rank0.averagePower   466.894375                       # Core power per rank (mW)
system.mem_ctrls.dram.rank0.totalIdleTime            0                       # Total Idle time Per DRAM Rank
system.mem_ctrls.dram.rank0.pwrStateTime::IDLE 112460458000                       # Time in different power states
system.mem_ctrls.dram.rank0.pwrStateTime::REF   3967340000                       # Time in different power states
system.mem_ctrls.dram.rank0.pwrStateTime::SREF            0                       # Time in different power states
system.mem_ctrls.dram.rank0.pwrStateTime::PRE_PDN            0                       # Time in different power states
system.mem_ctrls.dram.rank0.pwrStateTime::ACT   2388722000                       # Time in different power states
system.mem_ctrls.dram.rank0.pwrStateTime::ACT_PDN            0                       # Time in different power states
system.mem_ctrls.dram.rank1.actEnergy         5290740                       # Energy for activate commands per rank (pJ)
system.mem_ctrls.dram.rank1.preEnergy         2812095                       # Energy for precharge commands per rank (pJ)
system.mem_ctrls.dram.rank1.readEnergy       19692120                       # Energy for read commands per rank (pJ)
system.mem_ctrls.dram.rank1.writeEnergy             0                       # Energy for write commands per rank (pJ)
system.mem_ctrls.dram.rank1.refreshEnergy 9378791760.000002                       # Energy for refresh commands per rank (pJ)
system.mem_ctrls.dram.rank1.actBackEnergy   2722103400                       # Energy for active background per rank (pJ)
system.mem_ctrls.dram.rank1.preBackEnergy  43333246080                       # Energy for precharge background per rank (pJ)
system.mem_ctrls.dram.rank1.actPowerDownEnergy            0                       # Energy for active power-down per rank (pJ)
system.mem_ctrls.dram.rank1.prePowerDownEnergy            0                       # Energy for precharge power-down per rank (pJ)
system.mem_ctrls.dram.rank1.selfRefreshEnergy            0                       # Energy for self refresh per rank (pJ)
system.mem_ctrls.dram.rank1.totalEnergy   55461936195                       # Total energy per rank (pJ)
system.mem_ctrls.dram.rank1.averagePower   466.786405                       # Core power per rank (mW)
system.mem_ctrls.dram.rank1.totalIdleTime            0                       # Total Idle time Per DRAM Rank
system.mem_ctrls.dram.rank1.pwrStateTime::IDLE 112631104750                       # Time in different power states
system.mem_ctrls.dram.rank1.pwrStateTime::REF   3967340000                       # Time in different power states
system.mem_ctrls.dram.rank1.pwrStateTime::SREF            0                       # Time in different power states
system.mem_ctrls.dram.rank1.pwrStateTime::PRE_PDN            0                       # Time in different power states
system.mem_ctrls.dram.rank1.pwrStateTime::ACT   2218075250                       # Time in different power states
system.mem_ctrls.dram.rank1.pwrStateTime::ACT_PDN            0                       # Time in different power states
system.mem_ctrls.power_state.pwrStateResidencyTicks::UNDEFINED 118816520000                       # Cumulative time (in ticks) in various power states
system.membus.trans_dist::ReadResp               1835                       # Transaction distribution
system.membus.trans_dist::CleanEvict              112                       # Transaction distribution
system.membus.trans_dist::ReadExReq              3665                       # Transaction distribution
system.membus.trans_dist::ReadExResp             3665                       # Transaction distribution
system.membus.trans_dist::ReadSharedReq          1835                       # Transaction distribution
system.membus.pkt_count_system.l2.mem_side_port::system.mem_ctrls.port        11112                       # Packet count per connected requestor and responder (bytes)
system.membus.pkt_count::total                  11112                       # Packet count per connected requestor and responder (bytes)
system.membus.pkt_size_system.l2.mem_side_port::system.mem_ctrls.port       352000                       # Cumulative packet size per connected requestor and responder (bytes)
system.membus.pkt_size::total                  352000                       # Cumulative packet size per connected requestor and responder (bytes)
system.membus.snoops                                0                       # Total snoops (count)
system.membus.snoopTraffic                          0                       # Total snoop traffic (bytes)
system.membus.snoop_fanout::samples              5500                       # Request fanout histogram
system.membus.snoop_fanout::mean                    0                       # Request fanout histogram
system.membus.snoop_fanout::stdev                   0                       # Request fanout histogram
system.membus.snoop_fanout::underflows              0      0.00%      0.00% # Request fanout histogram
system.membus.snoop_fanout::0                    5500    100.00%    100.00% # Request fanout histogram
system.membus.snoop_fanout::1                       0      0.00%    100.00% # Request fanout histogram
system.membus.snoop_fanout::overflows               0      0.00%    100.00% # Request fanout histogram
system.membus.snoop_fanout::min_value               0                       # Request fanout histogram
system.membus.snoop_fanout::max_value               0                       # Request fanout histogram
system.membus.snoop_fanout::total                5500                       # Request fanout histogram
system.membus.power_state.pwrStateResidencyTicks::UNDEFINED 118816520000                       # Cumulative time (in ticks) in various power states
system.membus.reqLayer0.occupancy             5612000                       # Layer occupancy (ticks)
system.membus.reqLayer0.utilization               0.0                       # Layer utilization (%)
system.membus.respLayer1.occupancy           29251000                       # Layer occupancy (ticks)
system.membus.respLayer1.utilization              0.0                       # Layer utilization (%)
system.tol2bus.trans_dist::ReadResp             29857                       # Transaction distribution
system.tol2bus.trans_dist::WritebackDirty        50683                       # Transaction distribution
system.tol2bus.trans_dist::WritebackClean         6160                       # Transaction distribution
system.tol2bus.trans_dist::CleanEvict            2057                       # Transaction distribution
system.tol2bus.trans_dist::ReadExReq            31635                       # Transaction distribution
system.tol2bus.trans_dist::ReadExResp           31635                       # Transaction distribution
system.tol2bus.trans_dist::ReadCleanReq          6975                       # Transaction distribution
system.tol2bus.trans_dist::ReadSharedReq        22882                       # Transaction distribution
system.tol2bus.pkt_count_system.cpu.icache.mem_side_port::system.l2.cpu_side_port        20110                       # Packet count per connected requestor and responder (bytes)
system.tol2bus.pkt_count_system.cpu.dcache.mem_side_port::system.l2.cpu_side_port       161503                       # Packet count per connected requestor and responder (bytes)
system.tol2bus.pkt_count::total                181613                       # Packet count per connected requestor and responder (bytes)
system.tol2bus.pkt_size_system.cpu.icache.mem_side_port::system.l2.cpu_side_port       840640                       # Cumulative packet size per connected requestor and responder (bytes)
system.tol2bus.pkt_size_system.cpu.dcache.mem_side_port::system.l2.cpu_side_port      6732800                       # Cumulative packet size per connected requestor and responder (bytes)
system.tol2bus.pkt_size::total                7573440                       # Cumulative packet size per connected requestor and responder (bytes)
system.tol2bus.snoops                             271                       # Total snoops (count)
system.tol2bus.snoopTraffic                         0                       # Total snoop traffic (bytes)
system.tol2bus.snoop_fanout::samples            61763                       # Request fanout histogram
system.tol2bus.snoop_fanout::mean            0.025549                       # Request fanout histogram
system.tol2bus.snoop_fanout::stdev           0.158606                       # Request fanout histogram
system.tol2bus.snoop_fanout::underflows             0      0.00%      0.00% # Request fanout histogram
system.tol2bus.snoop_fanout::0                  60193     97.46%     97.46% # Request fanout histogram
system.tol2bus.snoop_fanout::1                   1562      2.53%     99.99% # Request fanout histogram
system.tol2bus.snoop_fanout::2                      8      0.01%    100.00% # Request fanout histogram
system.tol2bus.snoop_fanout::overflows              0      0.00%    100.00% # Request fanout histogram
system.tol2bus.snoop_fanout::min_value              0                       # Request fanout histogram
system.tol2bus.snoop_fanout::max_value              2                       # Request fanout histogram
system.tol2bus.snoop_fanout::total              61763                       # Request fanout histogram
system.tol2bus.power_state.pwrStateResidencyTicks::UNDEFINED 118816520000                       # Cumulative time (in ticks) in various power states
system.tol2bus.reqLayer0.occupancy          233807000                       # Layer occupancy (ticks)
system.tol2bus.reqLayer0.utilization              0.2                       # Layer utilization (%)
system.tol2bus.respLayer0.occupancy          20926998                       # Layer occupancy (ticks)
system.tol2bus.respLayer0.utilization             0.0                       # Layer utilization (%)
system.tol2bus.respLayer1.occupancy         163556994                       # Layer occupancy (ticks)
system.tol2bus.respLayer1.utilization             0.1                       # Layer utilization (%)
system.voltage_domain.voltage                       1                       # Voltage in Volts

---------- End Simulation Statistics   ----------
