
---------- Begin Simulation Statistics ----------
final_tick                               114513133000                       # Number of ticks from beginning of simulation (restored from checkpoints and never reset)
host_inst_rate                                 392607                       # Simulator instruction rate (inst/s)
host_mem_usage                                 661116                       # Number of bytes of host memory used
host_op_rate                                   429637                       # Simulator op (including micro ops) rate (op/s)
host_seconds                                   254.71                       # Real time elapsed on the host
host_tick_rate                              449586906                       # Simulator tick rate (ticks/s)
sim_freq                                 1000000000000                       # Frequency of simulated ticks
sim_insts                                   100000000                       # Number of instructions simulated
sim_ops                                     109431833                       # Number of ops (including micro ops) simulated
sim_seconds                                  0.114513                       # Number of seconds simulated
sim_ticks                                114513133000                       # Number of ticks simulated
system.cpu.committedInsts                   100000000                       # Number of instructions committed
system.cpu.committedOps                     109431833                       # Number of ops (including micro ops) committed
system.cpu.cpi                               1.145131                       # CPI: cycles per instruction
system.cpu.discardedOps                        729526                       # Number of ops (including micro ops) which were discarded before commit
system.cpu.idleCycles                         3765286                       # Total number of cycles that the object has spent stopped
system.cpu.ipc                               0.873262                       # IPC: instructions per cycle
system.cpu.numCycles                        114513133                       # number of cpu cycles simulated
system.cpu.numFetchSuspends                         0                       # Number of times Execute suspended instruction fetching
system.cpu.numWorkItemsCompleted                    0                       # number of work items this cpu completed
system.cpu.numWorkItemsStarted                      0                       # number of work items this cpu started
system.cpu.op_class_0::No_OpClass                   0      0.00%      0.00% # Class of committed instruction
system.cpu.op_class_0::IntAlu                72954902     66.67%     66.67% # Class of committed instruction
system.cpu.op_class_0::IntMult                 568365      0.52%     67.19% # Class of committed instruction
system.cpu.op_class_0::IntDiv                       0      0.00%     67.19% # Class of committed instruction
system.cpu.op_class_0::FloatAdd                     0      0.00%     67.19% # Class of committed instruction
system.cpu.op_class_0::FloatCmp                     0      0.00%     67.19% # Class of committed instruction
system.cpu.op_class_0::FloatCvt                     0      0.00%     67.19% # Class of committed instruction
system.cpu.op_class_0::FloatMult                    0      0.00%     67.19% # Class of committed instruction
system.cpu.op_class_0::FloatMultAcc                 0      0.00%     67.19% # Class of committed instruction
system.cpu.op_class_0::FloatDiv                     0      0.00%     67.19% # Class of committed instruction
system.cpu.op_class_0::FloatMisc                    0      0.00%     67.19% # Class of committed instruction
system.cpu.op_class_0::FloatSqrt                    0      0.00%     67.19% # Class of committed instruction
system.cpu.op_class_0::SimdAdd                 241244      0.22%     67.41% # Class of committed instruction
system.cpu.op_class_0::SimdAddAcc                   0      0.00%     67.41% # Class of committed instruction
system.cpu.op_class_0::SimdAlu                 154714      0.14%     67.55% # Class of committed instruction
system.cpu.op_class_0::SimdCmp                 120622      0.11%     67.66% # Class of committed instruction
system.cpu.op_class_0::SimdCvt                      0      0.00%     67.66% # Class of committed instruction
system.cpu.op_class_0::SimdMisc                 44543      0.04%     67.70% # Class of committed instruction
system.cpu.op_class_0::SimdMult                     0      0.00%     67.70% # Class of committed instruction
system.cpu.op_class_0::SimdMultAcc                  0      0.00%     67.70% # Class of committed instruction
system.cpu.op_class_0::SimdShift                    0      0.00%     67.70% # Class of committed instruction
system.cpu.op_class_0::SimdShiftAcc                 0      0.00%     67.70% # Class of committed instruction
system.cpu.op_class_0::SimdDiv                      0      0.00%     67.70% # Class of committed instruction
system.cpu.op_class_0::SimdSqrt                     0      0.00%     67.70% # Class of committed instruction
system.cpu.op_class_0::SimdFloatAdd                 0      0.00%     67.70% # Class of committed instruction
system.cpu.op_class_0::SimdFloatAlu                 0      0.00%     67.70% # Class of committed instruction
system.cpu.op_class_0::SimdFloatCmp                 0      0.00%     67.70% # Class of committed instruction
system.cpu.op_class_0::SimdFloatCvt                 0      0.00%     67.70% # Class of committed instruction
system.cpu.op_class_0::SimdFloatDiv                 0      0.00%     67.70% # Class of committed instruction
system.cpu.op_class_0::SimdFloatMisc           166460      0.15%     67.85% # Class of committed instruction
system.cpu.op_class_0::SimdFloatMult                0      0.00%     67.85% # Class of committed instruction
system.cpu.op_class_0::SimdFloatMultAcc             0      0.00%     67.85% # Class of committed instruction
system.cpu.op_class_0::SimdFloatSqrt                0      0.00%     67.85% # Class of committed instruction
system.cpu.op_class_0::SimdReduceAdd                0      0.00%     67.85% # Class of committed instruction
system.cpu.op_class_0::SimdReduceAlu                0      0.00%     67.85% # Class of committed instruction
system.cpu.op_class_0::SimdReduceCmp                0      0.00%     67.85% # Class of committed instruction
system.cpu.op_class_0::SimdFloatReduceAdd            0      0.00%     67.85% # Class of committed instruction
system.cpu.op_class_0::SimdFloatReduceCmp            0      0.00%     67.85% # Class of committed instruction
system.cpu.op_class_0::SimdAes                      0      0.00%     67.85% # Class of committed instruction
system.cpu.op_class_0::SimdAesMix                   0      0.00%     67.85% # Class of committed instruction
system.cpu.op_class_0::SimdSha1Hash                 0      0.00%     67.85% # Class of committed instruction
system.cpu.op_class_0::SimdSha1Hash2                0      0.00%     67.85% # Class of committed instruction
system.cpu.op_class_0::SimdSha256Hash               0      0.00%     67.85% # Class of committed instruction
system.cpu.op_class_0::SimdSha256Hash2              0      0.00%     67.85% # Class of committed instruction
system.cpu.op_class_0::SimdShaSigma2                0      0.00%     67.85% # Class of committed instruction
system.cpu.op_class_0::SimdShaSigma3                0      0.00%     67.85% # Class of committed instruction
system.cpu.op_class_0::SimdPredAlu                  0      0.00%     67.85% # Class of committed instruction
system.cpu.op_class_0::MemRead               20646336     18.87%     86.72% # Class of committed instruction
system.cpu.op_class_0::MemWrite              14534647     13.28%    100.00% # Class of committed instruction
system.cpu.op_class_0::FloatMemRead                 0      0.00%    100.00% # Class of committed instruction
system.cpu.op_class_0::FloatMemWrite                0      0.00%    100.00% # Class of committed instruction
system.cpu.op_class_0::IprAccess                    0      0.00%    100.00% # Class of committed instruction
system.cpu.op_class_0::InstPrefetch                 0      0.00%    100.00% # Class of committed instruction
system.cpu.op_class_0::total                109431833                       # Class of committed instruction
system.cpu.tickCycles                       110747847                       # Number of cycles that the object actually ticked
system.cpu.workload.numSyscalls                    86                       # Number of system calls
system.membus.snoop_filter.hit_multi_requests            0                       # Number of requests hitting in the snoop filter with multiple (>1) holders of the requested data.
system.membus.snoop_filter.hit_multi_snoops            0                       # Number of snoops hitting in the snoop filter with multiple (>1) holders of the requested data.
system.membus.snoop_filter.hit_single_requests        37844                       # Number of requests hitting in the snoop filter with a single holder of the requested data.
system.membus.snoop_filter.hit_single_snoops            0                       # Number of snoops hitting in the snoop filter with a single holder of the requested data.
system.membus.snoop_filter.tot_requests         84327                       # Total number of requests made to the snoop filter.
system.membus.snoop_filter.tot_snoops               0                       # Total number of snoops made to the snoop filter.
system.tol2bus.snoop_filter.hit_multi_requests           48                       # Number of requests hitting in the snoop filter with multiple (>1) holders of the requested data.
system.tol2bus.snoop_filter.hit_multi_snoops           13                       # Number of snoops hitting in the snoop filter with multiple (>1) holders of the requested data.
system.tol2bus.snoop_filter.hit_single_requests        63950                       # Number of requests hitting in the snoop filter with a single holder of the requested data.
system.tol2bus.snoop_filter.hit_single_snoops          672                       # Number of snoops hitting in the snoop filter with a single holder of the requested data.
system.tol2bus.snoop_filter.tot_requests       128847                       # Total number of requests made to the snoop filter.
system.tol2bus.snoop_filter.tot_snoops            685                       # Total number of snoops made to the snoop filter.
system.clk_domain.clock                          1000                       # Clock period in ticks
system.cpu.branchPred.lookups                20634770                       # Number of BP lookups
system.cpu.branchPred.condPredicted          16527289                       # Number of conditional branches predicted
system.cpu.branchPred.condIncorrect            153917                       # Number of conditional branches incorrect
system.cpu.branchPred.BTBLookups              8837517                       # Number of BTB lookups
system.cpu.branchPred.BTBHits                 8746888                       # Number of BTB hits
system.cpu.branchPred.BTBHitPct             98.974497                       # BTB Hit Percentage
system.cpu.branchPred.RASUsed                 1050600                       # Number of times the RAS was used to get a target.
system.cpu.branchPred.RASIncorrect                312                       # Number of incorrect RAS predictions.
system.cpu.branchPred.indirectLookups          433995                       # Number of indirect predictor lookups.
system.cpu.branchPred.indirectHits             300036                       # Number of indirect target hits.
system.cpu.branchPred.indirectMisses           133959                       # Number of indirect misses.
system.cpu.branchPred.indirectMispredicted         1205                       # Number of mispredicted indirect branches.
system.cpu.dcache.demand_hits::.cpu.data     35649625                       # number of demand (read+write) hits
system.cpu.dcache.demand_hits::total         35649625                       # number of demand (read+write) hits
system.cpu.dcache.overall_hits::.cpu.data     35652943                       # number of overall hits
system.cpu.dcache.overall_hits::total        35652943                       # number of overall hits
system.cpu.dcache.demand_misses::.cpu.data        87568                       # number of demand (read+write) misses
system.cpu.dcache.demand_misses::total          87568                       # number of demand (read+write) misses
system.cpu.dcache.overall_misses::.cpu.data        87623                       # number of overall misses
system.cpu.dcache.overall_misses::total         87623                       # number of overall misses
system.cpu.dcache.demand_miss_latency::.cpu.data   7155131000                       # number of demand (read+write) miss cycles
system.cpu.dcache.demand_miss_latency::total   7155131000                       # number of demand (read+write) miss cycles
system.cpu.dcache.overall_miss_latency::.cpu.data   7155131000                       # number of overall miss cycles
system.cpu.dcache.overall_miss_latency::total   7155131000                       # number of overall miss cycles
system.cpu.dcache.demand_accesses::.cpu.data     35737193                       # number of demand (read+write) accesses
system.cpu.dcache.demand_accesses::total     35737193                       # number of demand (read+write) accesses
system.cpu.dcache.overall_accesses::.cpu.data     35740566                       # number of overall (read+write) accesses
system.cpu.dcache.overall_accesses::total     35740566                       # number of overall (read+write) accesses
system.cpu.dcache.demand_miss_rate::.cpu.data     0.002450                       # miss rate for demand accesses
system.cpu.dcache.demand_miss_rate::total     0.002450                       # miss rate for demand accesses
system.cpu.dcache.overall_miss_rate::.cpu.data     0.002452                       # miss rate for overall accesses
system.cpu.dcache.overall_miss_rate::total     0.002452                       # miss rate for overall accesses
system.cpu.dcache.demand_avg_miss_latency::.cpu.data 81709.425818                       # average overall miss latency
system.cpu.dcache.demand_avg_miss_latency::total 81709.425818                       # average overall miss latency
system.cpu.dcache.overall_avg_miss_latency::.cpu.data 81658.137704                       # average overall miss latency
system.cpu.dcache.overall_avg_miss_latency::total 81658.137704                       # average overall miss latency
system.cpu.dcache.blocked_cycles::no_mshrs            0                       # number of cycles access was blocked
system.cpu.dcache.blocked_cycles::no_targets            0                       # number of cycles access was blocked
system.cpu.dcache.blocked::no_mshrs                 0                       # number of cycles access was blocked
system.cpu.dcache.blocked::no_targets               0                       # number of cycles access was blocked
system.cpu.dcache.avg_blocked_cycles::no_mshrs          nan                       # average number of cycles each access was blocked
system.cpu.dcache.avg_blocked_cycles::no_targets          nan                       # average number of cycles each access was blocked
system.cpu.dcache.writebacks::.writebacks        56355                       # number of writebacks
system.cpu.dcache.writebacks::total             56355                       # number of writebacks
system.cpu.dcache.demand_mshr_hits::.cpu.data        23916                       # number of demand (read+write) MSHR hits
system.cpu.dcache.demand_mshr_hits::total        23916                       # number of demand (read+write) MSHR hits
system.cpu.dcache.overall_mshr_hits::.cpu.data        23916                       # number of overall MSHR hits
system.cpu.dcache.overall_mshr_hits::total        23916                       # number of overall MSHR hits
system.cpu.dcache.demand_mshr_misses::.cpu.data        63652                       # number of demand (read+write) MSHR misses
system.cpu.dcache.demand_mshr_misses::total        63652                       # number of demand (read+write) MSHR misses
system.cpu.dcache.overall_mshr_misses::.cpu.data        63701                       # number of overall MSHR misses
system.cpu.dcache.overall_mshr_misses::total        63701                       # number of overall MSHR misses
system.cpu.dcache.demand_mshr_miss_latency::.cpu.data   5608467000                       # number of demand (read+write) MSHR miss cycles
system.cpu.dcache.demand_mshr_miss_latency::total   5608467000                       # number of demand (read+write) MSHR miss cycles
system.cpu.dcache.overall_mshr_miss_latency::.cpu.data   5611317000                       # number of overall MSHR miss cycles
system.cpu.dcache.overall_mshr_miss_latency::total   5611317000                       # number of overall MSHR miss cycles
system.cpu.dcache.demand_mshr_miss_rate::.cpu.data     0.001781                       # mshr miss rate for demand accesses
system.cpu.dcache.demand_mshr_miss_rate::total     0.001781                       # mshr miss rate for demand accesses
system.cpu.dcache.overall_mshr_miss_rate::.cpu.data     0.001782                       # mshr miss rate for overall accesses
system.cpu.dcache.overall_mshr_miss_rate::total     0.001782                       # mshr miss rate for overall accesses
system.cpu.dcache.demand_avg_mshr_miss_latency::.cpu.data 88111.402627                       # average overall mshr miss latency
system.cpu.dcache.demand_avg_mshr_miss_latency::total 88111.402627                       # average overall mshr miss latency
system.cpu.dcache.overall_avg_mshr_miss_latency::.cpu.data 88088.365960                       # average overall mshr miss latency
system.cpu.dcache.overall_avg_mshr_miss_latency::total 88088.365960                       # average overall mshr miss latency
system.cpu.dcache.replacements                  63188                       # number of replacements
system.cpu.dcache.ReadReq_hits::.cpu.data     21453390                       # number of ReadReq hits
system.cpu.dcache.ReadReq_hits::total        21453390                       # number of ReadReq hits
system.cpu.dcache.ReadReq_misses::.cpu.data        29208                       # number of ReadReq misses
system.cpu.dcache.ReadReq_misses::total         29208                       # number of ReadReq misses
system.cpu.dcache.ReadReq_miss_latency::.cpu.data   1442721000                       # number of ReadReq miss cycles
system.cpu.dcache.ReadReq_miss_latency::total   1442721000                       # number of ReadReq miss cycles
system.cpu.dcache.ReadReq_accesses::.cpu.data     21482598                       # number of ReadReq accesses(hits+misses)
system.cpu.dcache.ReadReq_accesses::total     21482598                       # number of ReadReq accesses(hits+misses)
system.cpu.dcache.ReadReq_miss_rate::.cpu.data     0.001360                       # miss rate for ReadReq accesses
system.cpu.dcache.ReadReq_miss_rate::total     0.001360                       # miss rate for ReadReq accesses
system.cpu.dcache.ReadReq_avg_miss_latency::.cpu.data 49394.720624                       # average ReadReq miss latency
system.cpu.dcache.ReadReq_avg_miss_latency::total 49394.720624                       # average ReadReq miss latency
system.cpu.dcache.ReadReq_mshr_hits::.cpu.data         6321                       # number of ReadReq MSHR hits
system.cpu.dcache.ReadReq_mshr_hits::total         6321                       # number of ReadReq MSHR hits
system.cpu.dcache.ReadReq_mshr_misses::.cpu.data        22887                       # number of ReadReq MSHR misses
system.cpu.dcache.ReadReq_mshr_misses::total        22887                       # number of ReadReq MSHR misses
system.cpu.dcache.ReadReq_mshr_miss_latency::.cpu.data   1207254000                       # number of ReadReq MSHR miss cycles
system.cpu.dcache.ReadReq_mshr_miss_latency::total   1207254000                       # number of ReadReq MSHR miss cycles
system.cpu.dcache.ReadReq_mshr_miss_rate::.cpu.data     0.001065                       # mshr miss rate for ReadReq accesses
system.cpu.dcache.ReadReq_mshr_miss_rate::total     0.001065                       # mshr miss rate for ReadReq accesses
system.cpu.dcache.ReadReq_avg_mshr_miss_latency::.cpu.data 52748.459824                       # average ReadReq mshr miss latency
system.cpu.dcache.ReadReq_avg_mshr_miss_latency::total 52748.459824                       # average ReadReq mshr miss latency
system.cpu.dcache.WriteReq_hits::.cpu.data     14196235                       # number of WriteReq hits
system.cpu.dcache.WriteReq_hits::total       14196235                       # number of WriteReq hits
system.cpu.dcache.WriteReq_misses::.cpu.data        58360                       # number of WriteReq misses
system.cpu.dcache.WriteReq_misses::total        58360                       # number of WriteReq misses
system.cpu.dcache.WriteReq_miss_latency::.cpu.data   5712410000                       # number of WriteReq miss cycles
system.cpu.dcache.WriteReq_miss_latency::total   5712410000                       # number of WriteReq miss cycles
system.cpu.dcache.WriteReq_accesses::.cpu.data     14254595                       # number of WriteReq accesses(hits+misses)
system.cpu.dcache.WriteReq_accesses::total     14254595                       # number of WriteReq accesses(hits+misses)
system.cpu.dcache.WriteReq_miss_rate::.cpu.data     0.004094                       # miss rate for WriteReq accesses
system.cpu.dcache.WriteReq_miss_rate::total     0.004094                       # miss rate for WriteReq accesses
system.cpu.dcache.WriteReq_avg_miss_latency::.cpu.data 97882.282385                       # average WriteReq miss latency
system.cpu.dcache.WriteReq_avg_miss_latency::total 97882.282385                       # average WriteReq miss latency
system.cpu.dcache.WriteReq_mshr_hits::.cpu.data        17595                       # number of WriteReq MSHR hits
system.cpu.dcache.WriteReq_mshr_hits::total        17595                       # number of WriteReq MSHR hits
system.cpu.dcache.WriteReq_mshr_misses::.cpu.data        40765                       # number of WriteReq MSHR misses
system.cpu.dcache.WriteReq_mshr_misses::total        40765                       # number of WriteReq MSHR misses
system.cpu.dcache.WriteReq_mshr_miss_latency::.cpu.data   4401213000                       # number of WriteReq MSHR miss cycles
system.cpu.dcache.WriteReq_mshr_miss_latency::total   4401213000                       # number of WriteReq MSHR miss cycles
system.cpu.dcache.WriteReq_mshr_miss_rate::.cpu.data     0.002860                       # mshr miss rate for WriteReq accesses
system.cpu.dcache.WriteReq_mshr_miss_rate::total     0.002860                       # mshr miss rate for WriteReq accesses
system.cpu.dcache.WriteReq_avg_mshr_miss_latency::.cpu.data 107965.485098                       # average WriteReq mshr miss latency
system.cpu.dcache.WriteReq_avg_mshr_miss_latency::total 107965.485098                       # average WriteReq mshr miss latency
system.cpu.dcache.SoftPFReq_hits::.cpu.data         3318                       # number of SoftPFReq hits
system.cpu.dcache.SoftPFReq_hits::total          3318                       # number of SoftPFReq hits
system.cpu.dcache.SoftPFReq_misses::.cpu.data           55                       # number of SoftPFReq misses
system.cpu.dcache.SoftPFReq_misses::total           55                       # number of SoftPFReq misses
system.cpu.dcache.SoftPFReq_accesses::.cpu.data         3373                       # number of SoftPFReq accesses(hits+misses)
system.cpu.dcache.SoftPFReq_accesses::total         3373                       # number of SoftPFReq accesses(hits+misses)
system.cpu.dcache.SoftPFReq_miss_rate::.cpu.data     0.016306                       # miss rate for SoftPFReq accesses
system.cpu.dcache.SoftPFReq_miss_rate::total     0.016306                       # miss rate for SoftPFReq accesses
system.cpu.dcache.SoftPFReq_mshr_misses::.cpu.data           49                       # number of SoftPFReq MSHR misses
system.cpu.dcache.SoftPFReq_mshr_misses::total           49                       # number of SoftPFReq MSHR misses
system.cpu.dcache.SoftPFReq_mshr_miss_latency::.cpu.data      2850000                       # number of SoftPFReq MSHR miss cycles
system.cpu.dcache.SoftPFReq_mshr_miss_latency::total      2850000                       # number of SoftPFReq MSHR miss cycles
system.cpu.dcache.SoftPFReq_mshr_miss_rate::.cpu.data     0.014527                       # mshr miss rate for SoftPFReq accesses
system.cpu.dcache.SoftPFReq_mshr_miss_rate::total     0.014527                       # mshr miss rate for SoftPFReq accesses
system.cpu.dcache.SoftPFReq_avg_mshr_miss_latency::.cpu.data 58163.265306                       # average SoftPFReq mshr miss latency
system.cpu.dcache.SoftPFReq_avg_mshr_miss_latency::total 58163.265306                       # average SoftPFReq mshr miss latency
system.cpu.dcache.LoadLockedReq_hits::.cpu.data        89081                       # number of LoadLockedReq hits
system.cpu.dcache.LoadLockedReq_hits::total        89081                       # number of LoadLockedReq hits
system.cpu.dcache.LoadLockedReq_accesses::.cpu.data        89081                       # number of LoadLockedReq accesses(hits+misses)
system.cpu.dcache.LoadLockedReq_accesses::total        89081                       # number of LoadLockedReq accesses(hits+misses)
system.cpu.dcache.StoreCondReq_hits::.cpu.data        89080                       # number of StoreCondReq hits
system.cpu.dcache.StoreCondReq_hits::total        89080                       # number of StoreCondReq hits
system.cpu.dcache.StoreCondReq_accesses::.cpu.data        89080                       # number of StoreCondReq accesses(hits+misses)
system.cpu.dcache.StoreCondReq_accesses::total        89080                       # number of StoreCondReq accesses(hits+misses)
system.cpu.dcache.power_state.pwrStateResidencyTicks::UNDEFINED 114513133000                       # Cumulative time (in ticks) in various power states
system.cpu.dcache.tags.tagsinuse           511.253420                       # Cycle average of tags in use
system.cpu.dcache.tags.total_refs            35894804                       # Total number of references to valid blocks.
system.cpu.dcache.tags.sampled_refs             63700                       # Sample count of references to valid blocks.
system.cpu.dcache.tags.avg_refs            563.497708                       # Average number of references to valid blocks.
system.cpu.dcache.tags.warmup_cycle            240000                       # Cycle when the warmup percentage was hit.
system.cpu.dcache.tags.occ_blocks::.cpu.data   511.253420                       # Average occupied blocks per requestor
system.cpu.dcache.tags.occ_percent::.cpu.data     0.998542                       # Average percentage of cache occupancy
system.cpu.dcache.tags.occ_percent::total     0.998542                       # Average percentage of cache occupancy
system.cpu.dcache.tags.occ_task_id_blocks::1024          512                       # Occupied blocks per task id
system.cpu.dcache.tags.age_task_id_blocks_1024::0            2                       # Occupied blocks per task id
system.cpu.dcache.tags.age_task_id_blocks_1024::1           32                       # Occupied blocks per task id
system.cpu.dcache.tags.age_task_id_blocks_1024::2          286                       # Occupied blocks per task id
system.cpu.dcache.tags.age_task_id_blocks_1024::3          162                       # Occupied blocks per task id
system.cpu.dcache.tags.age_task_id_blocks_1024::4           30                       # Occupied blocks per task id
system.cpu.dcache.tags.occ_task_id_percent::1024            1                       # Percentage of cache occupancy per task id
system.cpu.dcache.tags.tag_accesses          71901154                       # Number of tag accesses
system.cpu.dcache.tags.data_accesses         71901154                       # Number of data accesses
system.cpu.dcache.tags.power_state.pwrStateResidencyTicks::UNDEFINED 114513133000                       # Cumulative time (in ticks) in various power states
system.cpu.dtb.instHits                             0                       # ITB inst hits
system.cpu.dtb.instMisses                           0                       # ITB inst misses
system.cpu.dtb.readHits                             0                       # DTB read hits
system.cpu.dtb.readMisses                           0                       # DTB read misses
system.cpu.dtb.writeHits                            0                       # DTB write hits
system.cpu.dtb.writeMisses                          0                       # DTB write misses
system.cpu.dtb.inserts                              0                       # Number of times an entry is inserted into the TLB
system.cpu.dtb.flushTlb                             0                       # Number of times complete TLB was flushed
system.cpu.dtb.flushTlbMva                          0                       # Number of times TLB was flushed by MVA
system.cpu.dtb.flushTlbMvaAsid                      0                       # Number of times TLB was flushed by MVA & ASID
system.cpu.dtb.flushTlbAsid                         0                       # Number of times TLB was flushed by ASID
system.cpu.dtb.flushedEntries                       0                       # Number of entries that have been flushed from TLB
system.cpu.dtb.alignFaults                          0                       # Number of TLB faults due to alignment restrictions
system.cpu.dtb.prefetchFaults                       0                       # Number of TLB faults due to prefetch
system.cpu.dtb.domainFaults                         0                       # Number of TLB faults due to domain restrictions
system.cpu.dtb.permsFaults                          0                       # Number of TLB faults due to permissions restrictions
system.cpu.dtb.readAccesses                         0                       # DTB read accesses
system.cpu.dtb.writeAccesses                        0                       # DTB write accesses
system.cpu.dtb.instAccesses                         0                       # ITB inst accesses
system.cpu.dtb.hits                                 0                       # Total TLB (inst and data) hits
system.cpu.dtb.misses                               0                       # Total TLB (inst and data) misses
system.cpu.dtb.accesses                             0                       # Total TLB (inst and data) accesses
system.cpu.dtb.stage2_mmu.stage2_tlb.instHits            0                       # ITB inst hits
system.cpu.dtb.stage2_mmu.stage2_tlb.instMisses            0                       # ITB inst misses
system.cpu.dtb.stage2_mmu.stage2_tlb.readHits            0                       # DTB read hits
system.cpu.dtb.stage2_mmu.stage2_tlb.readMisses            0                       # DTB read misses
system.cpu.dtb.stage2_mmu.stage2_tlb.writeHits            0                       # DTB write hits
system.cpu.dtb.stage2_mmu.stage2_tlb.writeMisses            0                       # DTB write misses
system.cpu.dtb.stage2_mmu.stage2_tlb.inserts            0                       # Number of times an entry is inserted into the TLB
system.cpu.dtb.stage2_mmu.stage2_tlb.flushTlb            0                       # Number of times complete TLB was flushed
system.cpu.dtb.stage2_mmu.stage2_tlb.flushTlbMva            0                       # Number of times TLB was flushed by MVA
system.cpu.dtb.stage2_mmu.stage2_tlb.flushTlbMvaAsid            0                       # Number of times TLB was flushed by MVA & ASID
system.cpu.dtb.stage2_mmu.stage2_tlb.flushTlbAsid            0                       # Number of times TLB was flushed by ASID
system.cpu.dtb.stage2_mmu.stage2_tlb.flushedEntries            0                       # Number of entries that have been flushed from TLB
system.cpu.dtb.stage2_mmu.stage2_tlb.alignFaults            0                       # Number of TLB faults due to alignment restrictions
system.cpu.dtb.stage2_mmu.stage2_tlb.prefetchFaults            0                       # Number of TLB faults due to prefetch
system.cpu.dtb.stage2_mmu.stage2_tlb.domainFaults            0                       # Number of TLB faults due to domain restrictions
system.cpu.dtb.stage2_mmu.stage2_tlb.permsFaults            0                       # Number of TLB faults due to permissions restrictions
system.cpu.dtb.stage2_mmu.stage2_tlb.readAccesses            0                       # DTB read accesses
system.cpu.dtb.stage2_mmu.stage2_tlb.writeAccesses            0                       # DTB write accesses
system.cpu.dtb.stage2_mmu.stage2_tlb.instAccesses            0                       # ITB inst accesses
system.cpu.dtb.stage2_mmu.stage2_tlb.hits            0                       # Total TLB (inst and data) hits
system.cpu.dtb.stage2_mmu.stage2_tlb.misses            0                       # Total TLB (inst and data) misses
system.cpu.dtb.stage2_mmu.stage2_tlb.accesses            0                       # Total TLB (inst and data) accesses
system.cpu.dtb.stage2_mmu.stage2_tlb.walker.walks            0                       # Table walker walks requested
system.cpu.dtb.stage2_mmu.stage2_tlb.walker.requestOrigin_Requested::Data            0                       # Table walker requests started/completed, data/inst
system.cpu.dtb.stage2_mmu.stage2_tlb.walker.requestOrigin_Requested::Inst            0                       # Table walker requests started/completed, data/inst
system.cpu.dtb.stage2_mmu.stage2_tlb.walker.requestOrigin_Requested::total            0                       # Table walker requests started/completed, data/inst
system.cpu.dtb.stage2_mmu.stage2_tlb.walker.requestOrigin_Completed::Data            0                       # Table walker requests started/completed, data/inst
system.cpu.dtb.stage2_mmu.stage2_tlb.walker.requestOrigin_Completed::Inst            0                       # Table walker requests started/completed, data/inst
system.cpu.dtb.stage2_mmu.stage2_tlb.walker.requestOrigin_Completed::total            0                       # Table walker requests started/completed, data/inst
system.cpu.dtb.stage2_mmu.stage2_tlb.walker.requestOrigin::total            0                       # Table walker requests started/completed, data/inst
system.cpu.dtb.stage2_mmu.stage2_tlb.walker.power_state.pwrStateResidencyTicks::UNDEFINED 114513133000                       # Cumulative time (in ticks) in various power states
system.cpu.dtb.walker.walks                         0                       # Table walker walks requested
system.cpu.dtb.walker.requestOrigin_Requested::Data            0                       # Table walker requests started/completed, data/inst
system.cpu.dtb.walker.requestOrigin_Requested::Inst            0                       # Table walker requests started/completed, data/inst
system.cpu.dtb.walker.requestOrigin_Requested::total            0                       # Table walker requests started/completed, data/inst
system.cpu.dtb.walker.requestOrigin_Completed::Data            0                       # Table walker requests started/completed, data/inst
system.cpu.dtb.walker.requestOrigin_Completed::Inst            0                       # Table walker requests started/completed, data/inst
system.cpu.dtb.walker.requestOrigin_Completed::total            0                       # Table walker requests started/completed, data/inst
system.cpu.dtb.walker.requestOrigin::total            0                       # Table walker requests started/completed, data/inst
system.cpu.dtb.walker.power_state.pwrStateResidencyTicks::UNDEFINED 114513133000                       # Cumulative time (in ticks) in various power states
system.cpu.fetch2.intInstructions            49921742                       # Number of integer instructions successfully decoded
system.cpu.fetch2.fpInstructions                    0                       # Number of floating point instructions successfully decoded
system.cpu.fetch2.vecInstructions                   0                       # Number of SIMD instructions successfully decoded
system.cpu.fetch2.loadInstructions           17208385                       # Number of memory load instructions successfully decoded
system.cpu.fetch2.storeInstructions          10039473                       # Number of memory store instructions successfully decoded
system.cpu.fetch2.amoInstructions                   0                       # Number of memory atomic instructions successfully decoded
system.cpu.icache.demand_hits::.cpu.inst     28665525                       # number of demand (read+write) hits
system.cpu.icache.demand_hits::total         28665525                       # number of demand (read+write) hits
system.cpu.icache.overall_hits::.cpu.inst     28665525                       # number of overall hits
system.cpu.icache.overall_hits::total        28665525                       # number of overall hits
system.cpu.icache.demand_misses::.cpu.inst         1200                       # number of demand (read+write) misses
system.cpu.icache.demand_misses::total           1200                       # number of demand (read+write) misses
system.cpu.icache.overall_misses::.cpu.inst         1200                       # number of overall misses
system.cpu.icache.overall_misses::total          1200                       # number of overall misses
system.cpu.icache.demand_miss_latency::.cpu.inst     70406000                       # number of demand (read+write) miss cycles
system.cpu.icache.demand_miss_latency::total     70406000                       # number of demand (read+write) miss cycles
system.cpu.icache.overall_miss_latency::.cpu.inst     70406000                       # number of overall miss cycles
system.cpu.icache.overall_miss_latency::total     70406000                       # number of overall miss cycles
system.cpu.icache.demand_accesses::.cpu.inst     28666725                       # number of demand (read+write) accesses
system.cpu.icache.demand_accesses::total     28666725                       # number of demand (read+write) accesses
system.cpu.icache.overall_accesses::.cpu.inst     28666725                       # number of overall (read+write) accesses
system.cpu.icache.overall_accesses::total     28666725                       # number of overall (read+write) accesses
system.cpu.icache.demand_miss_rate::.cpu.inst     0.000042                       # miss rate for demand accesses
system.cpu.icache.demand_miss_rate::total     0.000042                       # miss rate for demand accesses
system.cpu.icache.overall_miss_rate::.cpu.inst     0.000042                       # miss rate for overall accesses
system.cpu.icache.overall_miss_rate::total     0.000042                       # miss rate for overall accesses
system.cpu.icache.demand_avg_miss_latency::.cpu.inst 58671.666667                       # average overall miss latency
system.cpu.icache.demand_avg_miss_latency::total 58671.666667                       # average overall miss latency
system.cpu.icache.overall_avg_miss_latency::.cpu.inst 58671.666667                       # average overall miss latency
system.cpu.icache.overall_avg_miss_latency::total 58671.666667                       # average overall miss latency
system.cpu.icache.blocked_cycles::no_mshrs            0                       # number of cycles access was blocked
system.cpu.icache.blocked_cycles::no_targets            0                       # number of cycles access was blocked
system.cpu.icache.blocked::no_mshrs                 0                       # number of cycles access was blocked
system.cpu.icache.blocked::no_targets               0                       # number of cycles access was blocked
system.cpu.icache.avg_blocked_cycles::no_mshrs          nan                       # average number of cycles each access was blocked
system.cpu.icache.avg_blocked_cycles::no_targets          nan                       # average number of cycles each access was blocked
system.cpu.icache.writebacks::.writebacks          758                       # number of writebacks
system.cpu.icache.writebacks::total               758                       # number of writebacks
system.cpu.icache.demand_mshr_misses::.cpu.inst         1200                       # number of demand (read+write) MSHR misses
system.cpu.icache.demand_mshr_misses::total         1200                       # number of demand (read+write) MSHR misses
system.cpu.icache.overall_mshr_misses::.cpu.inst         1200                       # number of overall MSHR misses
system.cpu.icache.overall_mshr_misses::total         1200                       # number of overall MSHR misses
system.cpu.icache.demand_mshr_miss_latency::.cpu.inst     68006000                       # number of demand (read+write) MSHR miss cycles
system.cpu.icache.demand_mshr_miss_latency::total     68006000                       # number of demand (read+write) MSHR miss cycles
system.cpu.icache.overall_mshr_miss_latency::.cpu.inst     68006000                       # number of overall MSHR miss cycles
system.cpu.icache.overall_mshr_miss_latency::total     68006000                       # number of overall MSHR miss cycles
system.cpu.icache.demand_mshr_miss_rate::.cpu.inst     0.000042                       # mshr miss rate for demand accesses
system.cpu.icache.demand_mshr_miss_rate::total     0.000042                       # mshr miss rate for demand accesses
system.cpu.icache.overall_mshr_miss_rate::.cpu.inst     0.000042                       # mshr miss rate for overall accesses
system.cpu.icache.overall_mshr_miss_rate::total     0.000042                       # mshr miss rate for overall accesses
system.cpu.icache.demand_avg_mshr_miss_latency::.cpu.inst 56671.666667                       # average overall mshr miss latency
system.cpu.icache.demand_avg_mshr_miss_latency::total 56671.666667                       # average overall mshr miss latency
system.cpu.icache.overall_avg_mshr_miss_latency::.cpu.inst 56671.666667                       # average overall mshr miss latency
system.cpu.icache.overall_avg_mshr_miss_latency::total 56671.666667                       # average overall mshr miss latency
system.cpu.icache.replacements                    758                       # number of replacements
system.cpu.icache.ReadReq_hits::.cpu.inst     28665525                       # number of ReadReq hits
system.cpu.icache.ReadReq_hits::total        28665525                       # number of ReadReq hits
system.cpu.icache.ReadReq_misses::.cpu.inst         1200                       # number of ReadReq misses
system.cpu.icache.ReadReq_misses::total          1200                       # number of ReadReq misses
system.cpu.icache.ReadReq_miss_latency::.cpu.inst     70406000                       # number of ReadReq miss cycles
system.cpu.icache.ReadReq_miss_latency::total     70406000                       # number of ReadReq miss cycles
system.cpu.icache.ReadReq_accesses::.cpu.inst     28666725                       # number of ReadReq accesses(hits+misses)
system.cpu.icache.ReadReq_accesses::total     28666725                       # number of ReadReq accesses(hits+misses)
system.cpu.icache.ReadReq_miss_rate::.cpu.inst     0.000042                       # miss rate for ReadReq accesses
system.cpu.icache.ReadReq_miss_rate::total     0.000042                       # miss rate for ReadReq accesses
system.cpu.icache.ReadReq_avg_miss_latency::.cpu.inst 58671.666667                       # average ReadReq miss latency
system.cpu.icache.ReadReq_avg_miss_latency::total 58671.666667                       # average ReadReq miss latency
system.cpu.icache.ReadReq_mshr_misses::.cpu.inst         1200                       # number of ReadReq MSHR misses
system.cpu.icache.ReadReq_mshr_misses::total         1200                       # number of ReadReq MSHR misses
system.cpu.icache.ReadReq_mshr_miss_latency::.cpu.inst     68006000                       # number of ReadReq MSHR miss cycles
system.cpu.icache.ReadReq_mshr_miss_latency::total     68006000                       # number of ReadReq MSHR miss cycles
system.cpu.icache.ReadReq_mshr_miss_rate::.cpu.inst     0.000042                       # mshr miss rate for ReadReq accesses
system.cpu.icache.ReadReq_mshr_miss_rate::total     0.000042                       # mshr miss rate for ReadReq accesses
system.cpu.icache.ReadReq_avg_mshr_miss_latency::.cpu.inst 56671.666667                       # average ReadReq mshr miss latency
system.cpu.icache.ReadReq_avg_mshr_miss_latency::total 56671.666667                       # average ReadReq mshr miss latency
system.cpu.icache.power_state.pwrStateResidencyTicks::UNDEFINED 114513133000                       # Cumulative time (in ticks) in various power states
system.cpu.icache.tags.tagsinuse           441.160864                       # Cycle average of tags in use
system.cpu.icache.tags.total_refs            28666725                       # Total number of references to valid blocks.
system.cpu.icache.tags.sampled_refs              1200                       # Sample count of references to valid blocks.
system.cpu.icache.tags.avg_refs          23888.937500                       # Average number of references to valid blocks.
system.cpu.icache.tags.warmup_cycle            108000                       # Cycle when the warmup percentage was hit.
system.cpu.icache.tags.occ_blocks::.cpu.inst   441.160864                       # Average occupied blocks per requestor
system.cpu.icache.tags.occ_percent::.cpu.inst     0.430821                       # Average percentage of cache occupancy
system.cpu.icache.tags.occ_percent::total     0.430821                       # Average percentage of cache occupancy
system.cpu.icache.tags.occ_task_id_blocks::1024          442                       # Occupied blocks per task id
system.cpu.icache.tags.age_task_id_blocks_1024::3            5                       # Occupied blocks per task id
system.cpu.icache.tags.age_task_id_blocks_1024::4          437                       # Occupied blocks per task id
system.cpu.icache.tags.occ_task_id_percent::1024     0.431641                       # Percentage of cache occupancy per task id
system.cpu.icache.tags.tag_accesses          28667925                       # Number of tag accesses
system.cpu.icache.tags.data_accesses         28667925                       # Number of data accesses
system.cpu.icache.tags.power_state.pwrStateResidencyTicks::UNDEFINED 114513133000                       # Cumulative time (in ticks) in various power states
system.cpu.itb.instHits                             0                       # ITB inst hits
system.cpu.itb.instMisses                           0                       # ITB inst misses
system.cpu.itb.readHits                             0                       # DTB read hits
system.cpu.itb.readMisses                           0                       # DTB read misses
system.cpu.itb.writeHits                            0                       # DTB write hits
system.cpu.itb.writeMisses                          0                       # DTB write misses
system.cpu.itb.inserts                              0                       # Number of times an entry is inserted into the TLB
system.cpu.itb.flushTlb                             0                       # Number of times complete TLB was flushed
system.cpu.itb.flushTlbMva                          0                       # Number of times TLB was flushed by MVA
system.cpu.itb.flushTlbMvaAsid                      0                       # Number of times TLB was flushed by MVA & ASID
system.cpu.itb.flushTlbAsid                         0                       # Number of times TLB was flushed by ASID
system.cpu.itb.flushedEntries                       0                       # Number of entries that have been flushed from TLB
system.cpu.itb.alignFaults                          0                       # Number of TLB faults due to alignment restrictions
system.cpu.itb.prefetchFaults                       0                       # Number of TLB faults due to prefetch
system.cpu.itb.domainFaults                         0                       # Number of TLB faults due to domain restrictions
system.cpu.itb.permsFaults                          0                       # Number of TLB faults due to permissions restrictions
system.cpu.itb.readAccesses                         0                       # DTB read accesses
system.cpu.itb.writeAccesses                        0                       # DTB write accesses
system.cpu.itb.instAccesses                         0                       # ITB inst accesses
system.cpu.itb.hits                                 0                       # Total TLB (inst and data) hits
system.cpu.itb.misses                               0                       # Total TLB (inst and data) misses
system.cpu.itb.accesses                             0                       # Total TLB (inst and data) accesses
system.cpu.itb.stage2_mmu.stage2_tlb.instHits            0                       # ITB inst hits
system.cpu.itb.stage2_mmu.stage2_tlb.instMisses            0                       # ITB inst misses
system.cpu.itb.stage2_mmu.stage2_tlb.readHits            0                       # DTB read hits
system.cpu.itb.stage2_mmu.stage2_tlb.readMisses            0                       # DTB read misses
system.cpu.itb.stage2_mmu.stage2_tlb.writeHits            0                       # DTB write hits
system.cpu.itb.stage2_mmu.stage2_tlb.writeMisses            0                       # DTB write misses
system.cpu.itb.stage2_mmu.stage2_tlb.inserts            0                       # Number of times an entry is inserted into the TLB
system.cpu.itb.stage2_mmu.stage2_tlb.flushTlb            0                       # Number of times complete TLB was flushed
system.cpu.itb.stage2_mmu.stage2_tlb.flushTlbMva            0                       # Number of times TLB was flushed by MVA
system.cpu.itb.stage2_mmu.stage2_tlb.flushTlbMvaAsid            0                       # Number of times TLB was flushed by MVA & ASID
system.cpu.itb.stage2_mmu.stage2_tlb.flushTlbAsid            0                       # Number of times TLB was flushed by ASID
system.cpu.itb.stage2_mmu.stage2_tlb.flushedEntries            0                       # Number of entries that have been flushed from TLB
system.cpu.itb.stage2_mmu.stage2_tlb.alignFaults            0                       # Number of TLB faults due to alignment restrictions
system.cpu.itb.stage2_mmu.stage2_tlb.prefetchFaults            0                       # Number of TLB faults due to prefetch
system.cpu.itb.stage2_mmu.stage2_tlb.domainFaults            0                       # Number of TLB faults due to domain restrictions
system.cpu.itb.stage2_mmu.stage2_tlb.permsFaults            0                       # Number of TLB faults due to permissions restrictions
system.cpu.itb.stage2_mmu.stage2_tlb.readAccesses            0                       # DTB read accesses
system.cpu.itb.stage2_mmu.stage2_tlb.writeAccesses            0                       # DTB write accesses
system.cpu.itb.stage2_mmu.stage2_tlb.instAccesses            0                       # ITB inst accesses
system.cpu.itb.stage2_mmu.stage2_tlb.hits            0                       # Total TLB (inst and data) hits
system.cpu.itb.stage2_mmu.stage2_tlb.misses            0                       # Total TLB (inst and data) misses
system.cpu.itb.stage2_mmu.stage2_tlb.accesses            0                       # Total TLB (inst and data) accesses
system.cpu.itb.stage2_mmu.stage2_tlb.walker.walks            0                       # Table walker walks requested
system.cpu.itb.stage2_mmu.stage2_tlb.walker.requestOrigin_Requested::Data            0                       # Table walker requests started/completed, data/inst
system.cpu.itb.stage2_mmu.stage2_tlb.walker.requestOrigin_Requested::Inst            0                       # Table walker requests started/completed, data/inst
system.cpu.itb.stage2_mmu.stage2_tlb.walker.requestOrigin_Requested::total            0                       # Table walker requests started/completed, data/inst
system.cpu.itb.stage2_mmu.stage2_tlb.walker.requestOrigin_Completed::Data            0                       # Table walker requests started/completed, data/inst
system.cpu.itb.stage2_mmu.stage2_tlb.walker.requestOrigin_Completed::Inst            0                       # Table walker requests started/completed, data/inst
system.cpu.itb.stage2_mmu.stage2_tlb.walker.requestOrigin_Completed::total            0                       # Table walker requests started/completed, data/inst
system.cpu.itb.stage2_mmu.stage2_tlb.walker.requestOrigin::total            0                       # Table walker requests started/completed, data/inst
system.cpu.itb.stage2_mmu.stage2_tlb.walker.power_state.pwrStateResidencyTicks::UNDEFINED 114513133000                       # Cumulative time (in ticks) in various power states
system.cpu.itb.walker.walks                         0                       # Table walker walks requested
system.cpu.itb.walker.requestOrigin_Requested::Data            0                       # Table walker requests started/completed, data/inst
system.cpu.itb.walker.requestOrigin_Requested::Inst            0                       # Table walker requests started/completed, data/inst
system.cpu.itb.walker.requestOrigin_Requested::total            0                       # Table walker requests started/completed, data/inst
system.cpu.itb.walker.requestOrigin_Completed::Data            0                       # Table walker requests started/completed, data/inst
system.cpu.itb.walker.requestOrigin_Completed::Inst            0                       # Table walker requests started/completed, data/inst
system.cpu.itb.walker.requestOrigin_Completed::total            0                       # Table walker requests started/completed, data/inst
system.cpu.itb.walker.requestOrigin::total            0                       # Table walker requests started/completed, data/inst
system.cpu.itb.walker.power_state.pwrStateResidencyTicks::UNDEFINED 114513133000                       # Cumulative time (in ticks) in various power states
system.cpu.power_state.pwrStateResidencyTicks::ON 114513133000                       # Cumulative time (in ticks) in various power states
system.cpu.thread_0.numInsts                100000000                       # Number of Instructions committed
system.cpu.thread_0.numOps                  109431833                       # Number of Ops committed
system.cpu.thread_0.numMemRefs                      0                       # Number of Memory References
system.cpu_clk_domain.clock                      1000                       # Clock period in ticks
system.cpu_voltage_domain.voltage                   1                       # Voltage in Volts
system.l2.demand_hits::.cpu.inst                  689                       # number of demand (read+write) hits
system.l2.demand_hits::.cpu.data                17712                       # number of demand (read+write) hits
system.l2.demand_hits::total                    18401                       # number of demand (read+write) hits
system.l2.overall_hits::.cpu.inst                 689                       # number of overall hits
system.l2.overall_hits::.cpu.data               17712                       # number of overall hits
system.l2.overall_hits::total                   18401                       # number of overall hits
system.l2.demand_misses::.cpu.inst                511                       # number of demand (read+write) misses
system.l2.demand_misses::.cpu.data              45989                       # number of demand (read+write) misses
system.l2.demand_misses::total                  46500                       # number of demand (read+write) misses
system.l2.overall_misses::.cpu.inst               511                       # number of overall misses
system.l2.overall_misses::.cpu.data             45989                       # number of overall misses
system.l2.overall_misses::total                 46500                       # number of overall misses
system.l2.demand_miss_latency::.cpu.inst     49920000                       # number of demand (read+write) miss cycles
system.l2.demand_miss_latency::.cpu.data   5048130000                       # number of demand (read+write) miss cycles
system.l2.demand_miss_latency::total       5098050000                       # number of demand (read+write) miss cycles
system.l2.overall_miss_latency::.cpu.inst     49920000                       # number of overall miss cycles
system.l2.overall_miss_latency::.cpu.data   5048130000                       # number of overall miss cycles
system.l2.overall_miss_latency::total      5098050000                       # number of overall miss cycles
system.l2.demand_accesses::.cpu.inst             1200                       # number of demand (read+write) accesses
system.l2.demand_accesses::.cpu.data            63701                       # number of demand (read+write) accesses
system.l2.demand_accesses::total                64901                       # number of demand (read+write) accesses
system.l2.overall_accesses::.cpu.inst            1200                       # number of overall (read+write) accesses
system.l2.overall_accesses::.cpu.data           63701                       # number of overall (read+write) accesses
system.l2.overall_accesses::total               64901                       # number of overall (read+write) accesses
system.l2.demand_miss_rate::.cpu.inst        0.425833                       # miss rate for demand accesses
system.l2.demand_miss_rate::.cpu.data        0.721951                       # miss rate for demand accesses
system.l2.demand_miss_rate::total            0.716476                       # miss rate for demand accesses
system.l2.overall_miss_rate::.cpu.inst       0.425833                       # miss rate for overall accesses
system.l2.overall_miss_rate::.cpu.data       0.721951                       # miss rate for overall accesses
system.l2.overall_miss_rate::total           0.716476                       # miss rate for overall accesses
system.l2.demand_avg_miss_latency::.cpu.inst 97690.802348                       # average overall miss latency
system.l2.demand_avg_miss_latency::.cpu.data 109768.205440                       # average overall miss latency
system.l2.demand_avg_miss_latency::total 109635.483871                       # average overall miss latency
system.l2.overall_avg_miss_latency::.cpu.inst 97690.802348                       # average overall miss latency
system.l2.overall_avg_miss_latency::.cpu.data 109768.205440                       # average overall miss latency
system.l2.overall_avg_miss_latency::total 109635.483871                       # average overall miss latency
system.l2.blocked_cycles::no_mshrs                  0                       # number of cycles access was blocked
system.l2.blocked_cycles::no_targets                0                       # number of cycles access was blocked
system.l2.blocked::no_mshrs                         0                       # number of cycles access was blocked
system.l2.blocked::no_targets                       0                       # number of cycles access was blocked
system.l2.avg_blocked_cycles::no_mshrs            nan                       # average number of cycles each access was blocked
system.l2.avg_blocked_cycles::no_targets          nan                       # average number of cycles each access was blocked
system.l2.writebacks::.writebacks               37621                       # number of writebacks
system.l2.writebacks::total                     37621                       # number of writebacks
system.l2.demand_mshr_hits::.cpu.inst               1                       # number of demand (read+write) MSHR hits
system.l2.demand_mshr_hits::.cpu.data               5                       # number of demand (read+write) MSHR hits
system.l2.demand_mshr_hits::total                   6                       # number of demand (read+write) MSHR hits
system.l2.overall_mshr_hits::.cpu.inst              1                       # number of overall MSHR hits
system.l2.overall_mshr_hits::.cpu.data              5                       # number of overall MSHR hits
system.l2.overall_mshr_hits::total                  6                       # number of overall MSHR hits
system.l2.demand_mshr_misses::.cpu.inst           510                       # number of demand (read+write) MSHR misses
system.l2.demand_mshr_misses::.cpu.data         45984                       # number of demand (read+write) MSHR misses
system.l2.demand_mshr_misses::total             46494                       # number of demand (read+write) MSHR misses
system.l2.overall_mshr_misses::.cpu.inst          510                       # number of overall MSHR misses
system.l2.overall_mshr_misses::.cpu.data        45984                       # number of overall MSHR misses
system.l2.overall_mshr_misses::total            46494                       # number of overall MSHR misses
system.l2.demand_mshr_miss_latency::.cpu.inst     39640000                       # number of demand (read+write) MSHR miss cycles
system.l2.demand_mshr_miss_latency::.cpu.data   4128042000                       # number of demand (read+write) MSHR miss cycles
system.l2.demand_mshr_miss_latency::total   4167682000                       # number of demand (read+write) MSHR miss cycles
system.l2.overall_mshr_miss_latency::.cpu.inst     39640000                       # number of overall MSHR miss cycles
system.l2.overall_mshr_miss_latency::.cpu.data   4128042000                       # number of overall MSHR miss cycles
system.l2.overall_mshr_miss_latency::total   4167682000                       # number of overall MSHR miss cycles
system.l2.demand_mshr_miss_rate::.cpu.inst     0.425000                       # mshr miss rate for demand accesses
system.l2.demand_mshr_miss_rate::.cpu.data     0.721872                       # mshr miss rate for demand accesses
system.l2.demand_mshr_miss_rate::total       0.716383                       # mshr miss rate for demand accesses
system.l2.overall_mshr_miss_rate::.cpu.inst     0.425000                       # mshr miss rate for overall accesses
system.l2.overall_mshr_miss_rate::.cpu.data     0.721872                       # mshr miss rate for overall accesses
system.l2.overall_mshr_miss_rate::total      0.716383                       # mshr miss rate for overall accesses
system.l2.demand_avg_mshr_miss_latency::.cpu.inst 77725.490196                       # average overall mshr miss latency
system.l2.demand_avg_mshr_miss_latency::.cpu.data 89771.268267                       # average overall mshr miss latency
system.l2.demand_avg_mshr_miss_latency::total 89639.136233                       # average overall mshr miss latency
system.l2.overall_avg_mshr_miss_latency::.cpu.inst 77725.490196                       # average overall mshr miss latency
system.l2.overall_avg_mshr_miss_latency::.cpu.data 89771.268267                       # average overall mshr miss latency
system.l2.overall_avg_mshr_miss_latency::total 89639.136233                       # average overall mshr miss latency
system.l2.replacements                          38459                       # number of replacements
system.l2.WritebackDirty_hits::.writebacks        56355                       # number of WritebackDirty hits
system.l2.WritebackDirty_hits::total            56355                       # number of WritebackDirty hits
system.l2.WritebackDirty_accesses::.writebacks        56355                       # number of WritebackDirty accesses(hits+misses)
system.l2.WritebackDirty_accesses::total        56355                       # number of WritebackDirty accesses(hits+misses)
system.l2.WritebackClean_hits::.writebacks          755                       # number of WritebackClean hits
system.l2.WritebackClean_hits::total              755                       # number of WritebackClean hits
system.l2.WritebackClean_accesses::.writebacks          755                       # number of WritebackClean accesses(hits+misses)
system.l2.WritebackClean_accesses::total          755                       # number of WritebackClean accesses(hits+misses)
system.l2.CleanEvict_mshr_misses::.writebacks           60                       # number of CleanEvict MSHR misses
system.l2.CleanEvict_mshr_misses::total            60                       # number of CleanEvict MSHR misses
system.l2.CleanEvict_mshr_miss_rate::.writebacks          inf                       # mshr miss rate for CleanEvict accesses
system.l2.CleanEvict_mshr_miss_rate::total          inf                       # mshr miss rate for CleanEvict accesses
system.l2.ReadExReq_hits::.cpu.data              1953                       # number of ReadExReq hits
system.l2.ReadExReq_hits::total                  1953                       # number of ReadExReq hits
system.l2.ReadExReq_misses::.cpu.data           38812                       # number of ReadExReq misses
system.l2.ReadExReq_misses::total               38812                       # number of ReadExReq misses
system.l2.ReadExReq_miss_latency::.cpu.data   4238012000                       # number of ReadExReq miss cycles
system.l2.ReadExReq_miss_latency::total    4238012000                       # number of ReadExReq miss cycles
system.l2.ReadExReq_accesses::.cpu.data         40765                       # number of ReadExReq accesses(hits+misses)
system.l2.ReadExReq_accesses::total             40765                       # number of ReadExReq accesses(hits+misses)
system.l2.ReadExReq_miss_rate::.cpu.data     0.952091                       # miss rate for ReadExReq accesses
system.l2.ReadExReq_miss_rate::total         0.952091                       # miss rate for ReadExReq accesses
system.l2.ReadExReq_avg_miss_latency::.cpu.data 109193.342265                       # average ReadExReq miss latency
system.l2.ReadExReq_avg_miss_latency::total 109193.342265                       # average ReadExReq miss latency
system.l2.ReadExReq_mshr_misses::.cpu.data        38812                       # number of ReadExReq MSHR misses
system.l2.ReadExReq_mshr_misses::total          38812                       # number of ReadExReq MSHR misses
system.l2.ReadExReq_mshr_miss_latency::.cpu.data   3461772000                       # number of ReadExReq MSHR miss cycles
system.l2.ReadExReq_mshr_miss_latency::total   3461772000                       # number of ReadExReq MSHR miss cycles
system.l2.ReadExReq_mshr_miss_rate::.cpu.data     0.952091                       # mshr miss rate for ReadExReq accesses
system.l2.ReadExReq_mshr_miss_rate::total     0.952091                       # mshr miss rate for ReadExReq accesses
system.l2.ReadExReq_avg_mshr_miss_latency::.cpu.data 89193.342265                       # average ReadExReq mshr miss latency
system.l2.ReadExReq_avg_mshr_miss_latency::total 89193.342265                       # average ReadExReq mshr miss latency
system.l2.ReadCleanReq_hits::.cpu.inst            689                       # number of ReadCleanReq hits
system.l2.ReadCleanReq_hits::total                689                       # number of ReadCleanReq hits
system.l2.ReadCleanReq_misses::.cpu.inst          511                       # number of ReadCleanReq misses
system.l2.ReadCleanReq_misses::total              511                       # number of ReadCleanReq misses
system.l2.ReadCleanReq_miss_latency::.cpu.inst     49920000                       # number of ReadCleanReq miss cycles
system.l2.ReadCleanReq_miss_latency::total     49920000                       # number of ReadCleanReq miss cycles
system.l2.ReadCleanReq_accesses::.cpu.inst         1200                       # number of ReadCleanReq accesses(hits+misses)
system.l2.ReadCleanReq_accesses::total           1200                       # number of ReadCleanReq accesses(hits+misses)
system.l2.ReadCleanReq_miss_rate::.cpu.inst     0.425833                       # miss rate for ReadCleanReq accesses
system.l2.ReadCleanReq_miss_rate::total      0.425833                       # miss rate for ReadCleanReq accesses
system.l2.ReadCleanReq_avg_miss_latency::.cpu.inst 97690.802348                       # average ReadCleanReq miss latency
system.l2.ReadCleanReq_avg_miss_latency::total 97690.802348                       # average ReadCleanReq miss latency
system.l2.ReadCleanReq_mshr_hits::.cpu.inst            1                       # number of ReadCleanReq MSHR hits
system.l2.ReadCleanReq_mshr_hits::total             1                       # number of ReadCleanReq MSHR hits
system.l2.ReadCleanReq_mshr_misses::.cpu.inst          510                       # number of ReadCleanReq MSHR misses
system.l2.ReadCleanReq_mshr_misses::total          510                       # number of ReadCleanReq MSHR misses
system.l2.ReadCleanReq_mshr_miss_latency::.cpu.inst     39640000                       # number of ReadCleanReq MSHR miss cycles
system.l2.ReadCleanReq_mshr_miss_latency::total     39640000                       # number of ReadCleanReq MSHR miss cycles
system.l2.ReadCleanReq_mshr_miss_rate::.cpu.inst     0.425000                       # mshr miss rate for ReadCleanReq accesses
system.l2.ReadCleanReq_mshr_miss_rate::total     0.425000                       # mshr miss rate for ReadCleanReq accesses
system.l2.ReadCleanReq_avg_mshr_miss_latency::.cpu.inst 77725.490196                       # average ReadCleanReq mshr miss latency
system.l2.ReadCleanReq_avg_mshr_miss_latency::total 77725.490196                       # average ReadCleanReq mshr miss latency
system.l2.ReadSharedReq_hits::.cpu.data         15759                       # number of ReadSharedReq hits
system.l2.ReadSharedReq_hits::total             15759                       # number of ReadSharedReq hits
system.l2.ReadSharedReq_misses::.cpu.data         7177                       # number of ReadSharedReq misses
system.l2.ReadSharedReq_misses::total            7177                       # number of ReadSharedReq misses
system.l2.ReadSharedReq_miss_latency::.cpu.data    810118000                       # number of ReadSharedReq miss cycles
system.l2.ReadSharedReq_miss_latency::total    810118000                       # number of ReadSharedReq miss cycles
system.l2.ReadSharedReq_accesses::.cpu.data        22936                       # number of ReadSharedReq accesses(hits+misses)
system.l2.ReadSharedReq_accesses::total         22936                       # number of ReadSharedReq accesses(hits+misses)
system.l2.ReadSharedReq_miss_rate::.cpu.data     0.312914                       # miss rate for ReadSharedReq accesses
system.l2.ReadSharedReq_miss_rate::total     0.312914                       # miss rate for ReadSharedReq accesses
system.l2.ReadSharedReq_avg_miss_latency::.cpu.data 112876.968093                       # average ReadSharedReq miss latency
system.l2.ReadSharedReq_avg_miss_latency::total 112876.968093                       # average ReadSharedReq miss latency
system.l2.ReadSharedReq_mshr_hits::.cpu.data            5                       # number of ReadSharedReq MSHR hits
system.l2.ReadSharedReq_mshr_hits::total            5                       # number of ReadSharedReq MSHR hits
system.l2.ReadSharedReq_mshr_misses::.cpu.data         7172                       # number of ReadSharedReq MSHR misses
system.l2.ReadSharedReq_mshr_misses::total         7172                       # number of ReadSharedReq MSHR misses
system.l2.ReadSharedReq_mshr_miss_latency::.cpu.data    666270000                       # number of ReadSharedReq MSHR miss cycles
system.l2.ReadSharedReq_mshr_miss_latency::total    666270000                       # number of ReadSharedReq MSHR miss cycles
system.l2.ReadSharedReq_mshr_miss_rate::.cpu.data     0.312696                       # mshr miss rate for ReadSharedReq accesses
system.l2.ReadSharedReq_mshr_miss_rate::total     0.312696                       # mshr miss rate for ReadSharedReq accesses
system.l2.ReadSharedReq_avg_mshr_miss_latency::.cpu.data 92898.773006                       # average ReadSharedReq mshr miss latency
system.l2.ReadSharedReq_avg_mshr_miss_latency::total 92898.773006                       # average ReadSharedReq mshr miss latency
system.l2.power_state.pwrStateResidencyTicks::UNDEFINED 114513133000                       # Cumulative time (in ticks) in various power states
system.l2.tags.tagsinuse                  8008.614245                       # Cycle average of tags in use
system.l2.tags.total_refs                      128733                       # Total number of references to valid blocks.
system.l2.tags.sampled_refs                     46651                       # Sample count of references to valid blocks.
system.l2.tags.avg_refs                      2.759491                       # Average number of references to valid blocks.
system.l2.tags.warmup_cycle                     87000                       # Cycle when the warmup percentage was hit.
system.l2.tags.occ_blocks::.writebacks      21.412728                       # Average occupied blocks per requestor
system.l2.tags.occ_blocks::.cpu.inst        27.281325                       # Average occupied blocks per requestor
system.l2.tags.occ_blocks::.cpu.data      7959.920192                       # Average occupied blocks per requestor
system.l2.tags.occ_percent::.writebacks      0.002614                       # Average percentage of cache occupancy
system.l2.tags.occ_percent::.cpu.inst        0.003330                       # Average percentage of cache occupancy
system.l2.tags.occ_percent::.cpu.data        0.971670                       # Average percentage of cache occupancy
system.l2.tags.occ_percent::total            0.977614                       # Average percentage of cache occupancy
system.l2.tags.occ_task_id_blocks::1024          8192                       # Occupied blocks per task id
system.l2.tags.age_task_id_blocks_1024::0            2                       # Occupied blocks per task id
system.l2.tags.age_task_id_blocks_1024::1           17                       # Occupied blocks per task id
system.l2.tags.age_task_id_blocks_1024::2          238                       # Occupied blocks per task id
system.l2.tags.age_task_id_blocks_1024::3         2512                       # Occupied blocks per task id
system.l2.tags.age_task_id_blocks_1024::4         5423                       # Occupied blocks per task id
system.l2.tags.occ_task_id_percent::1024            1                       # Percentage of cache occupancy per task id
system.l2.tags.tag_accesses                    304249                       # Number of tag accesses
system.l2.tags.data_accesses                   304249                       # Number of data accesses
system.l2.tags.power_state.pwrStateResidencyTicks::UNDEFINED 114513133000                       # Cumulative time (in ticks) in various power states
system.mem_ctrls.avgPriority_.writebacks::samples     37620.00                       # Average QoS priority value for accepted requests
system.mem_ctrls.avgPriority_.cpu.inst::samples       510.00                       # Average QoS priority value for accepted requests
system.mem_ctrls.avgPriority_.cpu.data::samples     45964.00                       # Average QoS priority value for accepted requests
system.mem_ctrls.priorityMinLatency      0.000000018750                       # per QoS priority minimum request to response latency (s)
system.mem_ctrls.priorityMaxLatency      0.002699522500                       # per QoS priority maximum request to response latency (s)
system.mem_ctrls.numReadWriteTurnArounds         2106                       # Number of turnarounds from READ to WRITE
system.mem_ctrls.numWriteReadTurnArounds         2106                       # Number of turnarounds from WRITE to READ
system.mem_ctrls.numStayReadState              159419                       # Number of times bus staying in READ state
system.mem_ctrls.numStayWriteState              35535                       # Number of times bus staying in WRITE state
system.mem_ctrls.readReqs                       46494                       # Number of read requests accepted
system.mem_ctrls.writeReqs                      37620                       # Number of write requests accepted
system.mem_ctrls.readBursts                     46494                       # Number of controller read bursts, including those serviced by the write queue
system.mem_ctrls.writeBursts                    37620                       # Number of controller write bursts, including those merged in the write queue
system.mem_ctrls.servicedByWrQ                     20                       # Number of controller read bursts serviced by the write queue
system.mem_ctrls.mergedWrBursts                     0                       # Number of controller write bursts merged with an existing one
system.mem_ctrls.neitherReadNorWriteReqs            0                       # Number of requests that are neither read nor write
system.mem_ctrls.avgRdQLen                       1.06                       # Average read queue length when enqueuing
system.mem_ctrls.avgWrQLen                      23.51                       # Average write queue length when enqueuing
system.mem_ctrls.numRdRetry                         0                       # Number of times read queue was full causing retry
system.mem_ctrls.numWrRetry                         0                       # Number of times write queue was full causing retry
system.mem_ctrls.readPktSize::0                     0                       # Read request sizes (log2)
system.mem_ctrls.readPktSize::1                     0                       # Read request sizes (log2)
system.mem_ctrls.readPktSize::2                     0                       # Read request sizes (log2)
system.mem_ctrls.readPktSize::3                     0                       # Read request sizes (log2)
system.mem_ctrls.readPktSize::4                     0                       # Read request sizes (log2)
system.mem_ctrls.readPktSize::5                     0                       # Read request sizes (log2)
system.mem_ctrls.readPktSize::6                 46494                       # Read request sizes (log2)
system.mem_ctrls.writePktSize::0                    0                       # Write request sizes (log2)
system.mem_ctrls.writePktSize::1                    0                       # Write request sizes (log2)
system.mem_ctrls.writePktSize::2                    0                       # Write request sizes (log2)
system.mem_ctrls.writePktSize::3                    0                       # Write request sizes (log2)
system.mem_ctrls.writePktSize::4                    0                       # Write request sizes (log2)
system.mem_ctrls.writePktSize::5                    0                       # Write request sizes (log2)
system.mem_ctrls.writePktSize::6                37620                       # Write request sizes (log2)
system.mem_ctrls.rdQLenPdf::0                   44541                       # What read queue length does an incoming req see
system.mem_ctrls.rdQLenPdf::1                    1927                       # What read queue length does an incoming req see
system.mem_ctrls.rdQLenPdf::2                       6                       # What read queue length does an incoming req see
[...]
system.mem_ctrls.dram.bw_write::.writebacks     21025361                       # Write bandwidth from this memory (bytes/s)
system.mem_ctrls.dram.bw_write::total        21025361                       # Write bandwidth from this memory (bytes/s)
system.mem_ctrls.dram.bw_total::.writebacks     21025361                       # Total bandwidth to/from this memory (bytes/s)
system.mem_ctrls.dram.bw_total::.cpu.inst       285033                       # Total bandwidth to/from this memory (bytes/s)
system.mem_ctrls.dram.bw_total::.cpu.data     25699899                       # Total bandwidth to/from this memory (bytes/s)
system.mem_ctrls.dram.bw_total::total        47010294                       # Total bandwidth to/from this memory (bytes/s)
system.mem_ctrls.dram.readBursts                46474                       # Number of DRAM read bursts
system.mem_ctrls.dram.writeBursts               37591                       # Number of DRAM write bursts
system.mem_ctrls.dram.perBankRdBursts::0         2862                       # Per bank write bursts
system.mem_ctrls.dram.perBankRdBursts::1         2874                       # Per bank write bursts
system.mem_ctrls.dram.perBankRdBursts::2         2847                       # Per bank write bursts
system.mem_ctrls.dram.perBankRdBursts::3         2970                       # Per bank write bursts
system.mem_ctrls.dram.perBankRdBursts::4         2957                       # Per bank write bursts
system.mem_ctrls.dram.perBankRdBursts::5         2803                       # Per bank write bursts
system.mem_ctrls.dram.perBankRdBursts::6         2881                       # Per bank write bursts
system.mem_ctrls.dram.perBankRdBursts::7         2991                       # Per bank write bursts
system.mem_ctrls.dram.perBankRdBursts::8         2859                       # Per bank write bursts
system.mem_ctrls.dram.perBankRdBursts::9         2929                       # Per bank write bursts
system.mem_ctrls.dram.perBankRdBursts::10         2948                       # Per bank write bursts
system.mem_ctrls.dram.perBankRdBursts::11         2874                       # Per bank write bursts
system.mem_ctrls.dram.perBankRdBursts::12         2966                       # Per bank write bursts
system.mem_ctrls.dram.perBankRdBursts::13         2840                       # Per bank write bursts
system.mem_ctrls.dram.perBankRdBursts::14         2977                       # Per bank write bursts
system.mem_ctrls.dram.perBankRdBursts::15         2896                       # Per bank write bursts
system.mem_ctrls.dram.perBankWrBursts::0         2297                       # Per bank write bursts
system.mem_ctrls.dram.perBankWrBursts::1         2334                       # Per bank write bursts
system.mem_ctrls.dram.perBankWrBursts::2         2317                       # Per bank write bursts
system.mem_ctrls.dram.perBankWrBursts::3         2319                       # Per bank write bursts
system.mem_ctrls.dram.perBankWrBursts::4         2379                       # Per bank write bursts
system.mem_ctrls.dram.perBankWrBursts::5         2288                       # Per bank write bursts
system.mem_ctrls.dram.perBankWrBursts::6         2373                       # Per bank write bursts
system.mem_ctrls.dram.perBankWrBursts::7         2451                       # Per bank write bursts
system.mem_ctrls.dram.perBankWrBursts::8         2327                       # Per bank write bursts
system.mem_ctrls.dram.perBankWrBursts::9         2362                       # Per bank write bursts
system.mem_ctrls.dram.perBankWrBursts::10         2399                       # Per bank write bursts
system.mem_ctrls.dram.perBankWrBursts::11         2300                       # Per bank write bursts
system.mem_ctrls.dram.perBankWrBursts::12         2397                       # Per bank write bursts
system.mem_ctrls.dram.perBankWrBursts::13         2308                       # Per bank write bursts
system.mem_ctrls.dram.perBankWrBursts::14         2388                       # Per bank write bursts
system.mem_ctrls.dram.perBankWrBursts::15         2352                       # Per bank write bursts
system.mem_ctrls.dram.totQLat               907379750                       # Total ticks spent queuing
system.mem_ctrls.dram.totBusLat             232370000                       # Total ticks spent in databus transfers
system.mem_ctrls.dram.totMemAccLat         1778767250                       # Total ticks spent from burst creation until serviced by the DRAM
system.mem_ctrls.dram.avgQLat                19524.46                       # Average queueing delay per DRAM burst
system.mem_ctrls.dram.avgBusLat               5000.00                       # Average bus latency per DRAM burst
system.mem_ctrls.dram.avgMemAccLat           38274.46                       # Average memory access latency per DRAM burst
system.mem_ctrls.dram.readRowHits               21105                       # Number of row buffer hits during reads
system.mem_ctrls.dram.writeRowHits              27341                       # Number of row buffer hits during writes
system.mem_ctrls.dram.readRowHitRate            45.41                       # Row buffer hit rate for reads
system.mem_ctrls.dram.writeRowHitRate           72.73                       # Row buffer hit rate for writes
system.mem_ctrls.dram.bytesPerActivate::samples        35618                       # Bytes accessed per row activation
system.mem_ctrls.dram.bytesPerActivate::mean   151.049919                       # Bytes accessed per row activation
system.mem_ctrls.dram.bytesPerActivate::gmean   105.024601                       # Bytes accessed per row activation
system.mem_ctrls.dram.bytesPerActivate::stdev   184.959747                       # Bytes accessed per row activation
system.mem_ctrls.dram.bytesPerActivate::0-127        20886     58.64%     58.64% # Bytes accessed per row activation
system.mem_ctrls.dram.bytesPerActivate::128-255         9341     26.23%     84.86% # Bytes accessed per row activation
system.mem_ctrls.dram.bytesPerActivate::256-383         1928      5.41%     90.28% # Bytes accessed per row activation
system.mem_ctrls.dram.bytesPerActivate::384-511         1298      3.64%     93.92% # Bytes accessed per row activation
system.mem_ctrls.dram.bytesPerActivate::512-639          679      1.91%     95.83% # Bytes accessed per row activation
system.mem_ctrls.dram.bytesPerActivate::640-767          319      0.90%     96.72% # Bytes accessed per row activation
system.mem_ctrls.dram.bytesPerActivate::768-895          296      0.83%     97.55% # Bytes accessed per row activation
system.mem_ctrls.dram.bytesPerActivate::896-1023          278      0.78%     98.34% # Bytes accessed per row activation
system.mem_ctrls.dram.bytesPerActivate::1024-1151          593      1.66%    100.00% # Bytes accessed per row activation
system.mem_ctrls.dram.bytesPerActivate::total        35618                       # Bytes accessed per row activation
system.mem_ctrls.dram.bytesRead               2974336                       # Total number of bytes read from DRAM
system.mem_ctrls.dram.bytesWritten            2405824                       # Total number of bytes written to DRAM
system.mem_ctrls.dram.avgRdBW               25.973754                       # Average DRAM read bandwidth in MiBytes/s
system.mem_ctrls.dram.avgWrBW               21.009154                       # Average DRAM write bandwidth in MiBytes/s
system.mem_ctrls.dram.peakBW                 12800.00                       # Theoretical peak bandwidth in MiByte/s
system.mem_ctrls.dram.busUtil                    0.37                       # Data bus utilization in percentage
system.mem_ctrls.dram.busUtilRead                0.20                       # Data bus utilization in percentage for reads
system.mem_ctrls.dram.busUtilWrite               0.16                       # Data bus utilization in percentage for writes
system.mem_ctrls.dram.pageHitRate               57.63                       # Row buffer hit rate, read and write combined
system.mem_ctrls.dram.power_state.pwrStateResidencyTicks::UNDEFINED 114513133000                       # Cumulative time (in ticks) in various power states
system.mem_ctrls.dram.rank0.actEnergy       128312940                       # Energy for activate commands per rank (pJ)
system.mem_ctrls.dram.rank0.preEnergy        68196150                       # Energy for precharge commands per rank (pJ)
system.mem_ctrls.dram.rank0.readEnergy      165540900                       # Energy for read commands per rank (pJ)
system.mem_ctrls.dram.rank0.writeEnergy      97916760                       # Energy for write commands per rank (pJ)
system.mem_ctrls.dram.rank0.refreshEnergy 9039510480.000002                       # Energy for refresh commands per rank (pJ)
system.mem_ctrls.dram.rank0.actBackEnergy  25360464510                       # Energy for active background per rank (pJ)
system.mem_ctrls.dram.rank0.preBackEnergy  22616862720                       # Energy for precharge background per rank (pJ)
system.mem_ctrls.dram.rank0.actPowerDownEnergy            0                       # Energy for active power-down per rank (pJ)
system.mem_ctrls.dram.rank0.prePowerDownEnergy            0                       # Energy for precharge power-down per rank (pJ)
system.mem_ctrls.dram.rank0.selfRefreshEnergy            0                       # Energy for self refresh per rank (pJ)
system.mem_ctrls.dram.rank0.totalEnergy   57476804460                       # Total energy per rank (pJ)
system.mem_ctrls.dram.rank0.averagePower   501.923255                       # Core power per rank (mW)
system.mem_ctrls.dram.rank0.totalIdleTime            0                       # Total Idle time Per DRAM Rank
system.mem_ctrls.dram.rank0.pwrStateTime::IDLE  58554570500                       # Time in different power states
system.mem_ctrls.dram.rank0.pwrStateTime::REF   3823820000                       # Time in different power states
system.mem_ctrls.dram.rank0.pwrStateTime::SREF            0                       # Time in different power states
system.mem_ctrls.dram.rank0.pwrStateTime::PRE_PDN            0                       # Time in different power states
system.mem_ctrls.dram.rank0.pwrStateTime::ACT  52134742500                       # Time in different power states
system.mem_ctrls.dram.rank0.pwrStateTime::ACT_PDN            0                       # Time in different power states
system.mem_ctrls.dram.rank1.actEnergy       126006720                       # Energy for activate commands per rank (pJ)
system.mem_ctrls.dram.rank1.preEnergy        66974160                       # Energy for precharge commands per rank (pJ)
system.mem_ctrls.dram.rank1.readEnergy      166283460                       # Energy for read commands per rank (pJ)
system.mem_ctrls.dram.rank1.writeEnergy      98308260                       # Energy for write commands per rank (pJ)
system.mem_ctrls.dram.rank1.refreshEnergy 9039510480.000002                       # Energy for refresh commands per rank (pJ)
system.mem_ctrls.dram.rank1.actBackEnergy  25377023580                       # Energy for active background per rank (pJ)
system.mem_ctrls.dram.rank1.preBackEnergy  22602918240                       # Energy for precharge background per rank (pJ)
system.mem_ctrls.dram.rank1.actPowerDownEnergy            0                       # Energy for active power-down per rank (pJ)
system.mem_ctrls.dram.rank1.prePowerDownEnergy            0                       # Energy for precharge power-down per rank (pJ)
system.mem_ctrls.dram.rank1.selfRefreshEnergy            0                       # Energy for self refresh per rank (pJ)
system.mem_ctrls.dram.rank1.totalEnergy   57477024900                       # Total energy per rank (pJ)
system.mem_ctrls.dram.rank1.averagePower   501.925180                       # Core power per rank (mW)
system.mem_ctrls.dram.rank1.totalIdleTime            0                       # Total Idle time Per DRAM Rank
system.mem_ctrls.dram.rank1.pwrStateTime::IDLE  58516187500                       # Time in different power states
system.mem_ctrls.dram.rank1.pwrStateTime::REF   3823820000                       # Time in different power states
system.mem_ctrls.dram.rank1.pwrStateTime::SREF            0                       # Time in different power states
system.mem_ctrls.dram.rank1.pwrStateTime::PRE_PDN            0                       # Time in different power states
system.mem_ctrls.dram.rank1.pwrStateTime::ACT  52173125500                       # Time in different power states
system.mem_ctrls.dram.rank1.pwrStateTime::ACT_PDN            0                       # Time in different power states
system.mem_ctrls.power_state.pwrStateResidencyTicks::UNDEFINED 114513133000                       # Cumulative time (in ticks) in various power states
system.membus.trans_dist::ReadResp               7682                       # Transaction distribution
system.membus.trans_dist::WritebackDirty        37620                       # Transaction distribution
system.membus.trans_dist::CleanEvict              213                       # Transaction distribution
system.membus.trans_dist::ReadExReq             38812                       # Transaction distribution
system.membus.trans_dist::ReadExResp            38812                       # Transaction distribution
system.membus.trans_dist::ReadSharedReq          7682                       # Transaction distribution
system.membus.pkt_count_system.l2.mem_side_port::system.mem_ctrls.port       130821                       # Packet count per connected requestor and responder (bytes)
system.membus.pkt_count::total                 130821                       # Packet count per connected requestor and responder (bytes)
system.membus.pkt_size_system.l2.mem_side_port::system.mem_ctrls.port      5383296                       # Cumulative packet size per connected requestor and responder (bytes)
system.membus.pkt_size::total                 5383296                       # Cumulative packet size per connected requestor and responder (bytes)
system.membus.snoops                                0                       # Total snoops (count)
system.membus.snoopTraffic                          0                       # Total snoop traffic (bytes)
system.membus.snoop_fanout::samples             46494                       # Request fanout histogram
system.membus.snoop_fanout::mean                    0                       # Request fanout histogram
system.membus.snoop_fanout::stdev                   0                       # Request fanout histogram
system.membus.snoop_fanout::underflows              0      0.00%      0.00% # Request fanout histogram
system.membus.snoop_fanout::0                   46494    100.00%    100.00% # Request fanout histogram
system.membus.snoop_fanout::1                       0      0.00%    100.00% # Request fanout histogram
system.membus.snoop_fanout::overflows               0      0.00%    100.00% # Request fanout histogram
system.membus.snoop_fanout::min_value               0                       # Request fanout histogram
system.membus.snoop_fanout::max_value               0                       # Request fanout histogram
system.membus.snoop_fanout::total               46494                       # Request fanout histogram
system.membus.power_state.pwrStateResidencyTicks::UNDEFINED 114513133000                       # Cumulative time (in ticks) in various power states
system.membus.reqLayer0.occupancy           234807000                       # Layer occupancy (ticks)
system.membus.reqLayer0.utilization               0.2                       # Layer utilization (%)
system.membus.respLayer1.occupancy          250349500                       # Layer occupancy (ticks)
system.membus.respLayer1.utilization              0.2                       # Layer utilization (%)
system.tol2bus.trans_dist::ReadResp             24136                       # Transaction distribution
system.tol2bus.trans_dist::WritebackDirty        93976                       # Transaction distribution
system.tol2bus.trans_dist::WritebackClean          758                       # Transaction distribution
system.tol2bus.trans_dist::CleanEvict            7671                       # Transaction distribution
system.tol2bus.trans_dist::ReadExReq            40765                       # Transaction distribution
system.tol2bus.trans_dist::ReadExResp           40764                       # Transaction distribution
system.tol2bus.trans_dist::ReadCleanReq          1200                       # Transaction distribution
system.tol2bus.trans_dist::ReadSharedReq        22936                       # Transaction distribution
system.tol2bus.pkt_count_system.cpu.icache.mem_side_port::system.l2.cpu_side_port         3158                       # Packet count per connected requestor and responder (bytes)
system.tol2bus.pkt_count_system.cpu.dcache.mem_side_port::system.l2.cpu_side_port       190589                       # Packet count per connected requestor and responder (bytes)
system.tol2bus.pkt_count::total                193747                       # Packet count per connected requestor and responder (bytes)
system.tol2bus.pkt_size_system.cpu.icache.mem_side_port::system.l2.cpu_side_port       125312                       # Cumulative packet size per connected requestor and responder (bytes)
system.tol2bus.pkt_size_system.cpu.dcache.mem_side_port::system.l2.cpu_side_port      7683520                       # Cumulative packet size per connected requestor and responder (bytes)
system.tol2bus.pkt_size::total                7808832                       # Cumulative packet size per connected requestor and responder (bytes)
system.tol2bus.snoops                           38459                       # Total snoops (count)
system.tol2bus.snoopTraffic                   2407744                       # Total snoop traffic (bytes)
system.tol2bus.snoop_fanout::samples           103360                       # Request fanout histogram
system.tol2bus.snoop_fanout::mean            0.007256                       # Request fanout histogram
system.tol2bus.snoop_fanout::stdev           0.086343                       # Request fanout histogram
system.tol2bus.snoop_fanout::underflows             0      0.00%      0.00% # Request fanout histogram
system.tol2bus.snoop_fanout::0                 102623     99.29%     99.29% # Request fanout histogram
system.tol2bus.snoop_fanout::1                    724      0.70%     99.99% # Request fanout histogram
system.tol2bus.snoop_fanout::2                     13      0.01%    100.00% # Request fanout histogram
system.tol2bus.snoop_fanout::overflows              0      0.00%    100.00% # Request fanout histogram
system.tol2bus.snoop_fanout::min_value              0                       # Request fanout histogram
system.tol2bus.snoop_fanout::max_value              2                       # Request fanout histogram
system.tol2bus.snoop_fanout::total             103360                       # Request fanout histogram
system.tol2bus.power_state.pwrStateResidencyTicks::UNDEFINED 114513133000                       # Cumulative time (in ticks) in various power states
system.tol2bus.reqLayer0.occupancy          243073000                       # Layer occupancy (ticks)
system.tol2bus.reqLayer0.utilization              0.2                       # Layer utilization (%)
system.tol2bus.respLayer0.occupancy           3600999                       # Layer occupancy (ticks)
system.tol2bus.respLayer0.utilization             0.0                       # Layer utilization (%)
system.tol2bus.respLayer1.occupancy         191104995                       # Layer occupancy (ticks)
system.tol2bus.respLayer1.utilization             0.2                       # Layer utilization (%)
system.voltage_domain.voltage                       1                       # Voltage in Volts

---------- End Simulation Statistics   ----------
