
---------- Begin Simulation Statistics ----------
final_tick                               707576739000                       # Number of ticks from beginning of simulation (restored from checkpoints and never reset)
host_inst_rate                                 204108                       # Simulator instruction rate (inst/s)
host_mem_usage                                 662308                       # Number of bytes of host memory used
host_op_rate                                   376004                       # Simulator op (including micro ops) rate (op/s)
host_seconds                                   489.94                       # Real time elapsed on the host
host_tick_rate                             1444217855                       # Simulator tick rate (ticks/s)
sim_freq                                 1000000000000                       # Frequency of simulated ticks
sim_insts                                   100000000                       # Number of instructions simulated
sim_ops                                     184218644                       # Number of ops (including micro ops) simulated
sim_seconds                                  0.707577                       # Number of seconds simulated
sim_ticks                                707576739000                       # Number of ticks simulated
system.cpu.committedInsts                   100000000                       # Number of instructions committed
system.cpu.committedOps                     184218644                       # Number of ops (including micro ops) committed
system.cpu.cpi                               7.075767                       # CPI: cycles per instruction
system.cpu.discardedOps                          4310                       # Number of ops (including micro ops) which were discarded before commit
system.cpu.idleCycles                       485793883                       # Total number of cycles that the object has spent stopped
system.cpu.ipc                               0.141327                       # IPC: instructions per cycle
system.cpu.numCycles                        707576739                       # number of cpu cycles simulated
system.cpu.numFetchSuspends                         0                       # Number of times Execute suspended instruction fetching
system.cpu.numWorkItemsCompleted                    0                       # number of work items this cpu completed
system.cpu.numWorkItemsStarted                      0                       # number of work items this cpu started
system.cpu.op_class_0::No_OpClass                   0      0.00%      0.00% # Class of committed instruction
system.cpu.op_class_0::IntAlu                97640476     53.00%     53.00% # Class of committed instruction
system.cpu.op_class_0::IntMult                 114699      0.06%     53.06% # Class of committed instruction
system.cpu.op_class_0::IntDiv                       0      0.00%     53.06% # Class of committed instruction
system.cpu.op_class_0::FloatAdd                     0      0.00%     53.06% # Class of committed instruction
system.cpu.op_class_0::FloatCmp                     0      0.00%     53.06% # Class of committed instruction
system.cpu.op_class_0::FloatCvt                     0      0.00%     53.06% # Class of committed instruction
system.cpu.op_class_0::FloatMult                    0      0.00%     53.06% # Class of committed instruction
system.cpu.op_class_0::FloatMultAcc                 0      0.00%     53.06% # Class of committed instruction
system.cpu.op_class_0::FloatDiv                     0      0.00%     53.06% # Class of committed instruction
system.cpu.op_class_0::FloatMisc                    0      0.00%     53.06% # Class of committed instruction
system.cpu.op_class_0::FloatSqrt                    0      0.00%     53.06% # Class of committed instruction
system.cpu.op_class_0::SimdAdd                      8      0.00%     53.06% # Class of committed instruction
system.cpu.op_class_0::SimdAddAcc                   0      0.00%     53.06% # Class of committed instruction
system.cpu.op_class_0::SimdAlu                      8      0.00%     53.06% # Class of committed instruction
system.cpu.op_class_0::SimdCmp                      6      0.00%     53.06% # Class of committed instruction
system.cpu.op_class_0::SimdCvt                      0      0.00%     53.06% # Class of committed instruction
system.cpu.op_class_0::SimdMisc                     1      0.00%     53.06% # Class of committed instruction
system.cpu.op_class_0::SimdMult                     0      0.00%     53.06% # Class of committed instruction
system.cpu.op_class_0::SimdMultAcc                  0      0.00%     53.06% # Class of committed instruction
system.cpu.op_class_0::SimdShift                    0      0.00%     53.06% # Class of committed instruction
system.cpu.op_class_0::SimdShiftAcc                 0      0.00%     53.06% # Class of committed instruction
system.cpu.op_class_0::SimdDiv                      0      0.00%     53.06% # Class of committed instruction
system.cpu.op_class_0::SimdSqrt                     0      0.00%     53.06% # Class of committed instruction
system.cpu.op_class_0::SimdFloatAdd                 0      0.00%     53.06% # Class of committed instruction
system.cpu.op_class_0::SimdFloatAlu                 0      0.00%     53.06% # Class of committed instruction
system.cpu.op_class_0::SimdFloatCmp                 0      0.00%     53.06% # Class of committed instruction
system.cpu.op_class_0::SimdFloatCvt                 0      0.00%     53.06% # Class of committed instruction
system.cpu.op_class_0::SimdFloatDiv                 0      0.00%     53.06% # Class of committed instruction
system.cpu.op_class_0::SimdFloatMisc               23      0.00%     53.06% # Class of committed instruction
system.cpu.op_class_0::SimdFloatMult                0      0.00%     53.06% # Class of committed instruction
system.cpu.op_class_0::SimdFloatMultAcc             0      0.00%     53.06% # Class of committed instruction
system.cpu.op_class_0::SimdFloatSqrt                0      0.00%     53.06% # Class of committed instruction
system.cpu.op_class_0::SimdReduceAdd                0      0.00%     53.06% # Class of committed instruction
system.cpu.op_class_0::SimdReduceAlu                0      0.00%     53.06% # Class of committed instruction
system.cpu.op_class_0::SimdReduceCmp                0      0.00%     53.06% # Class of committed instruction
system.cpu.op_class_0::SimdFloatReduceAdd            0      0.00%     53.06% # Class of committed instruction
system.cpu.op_class_0::SimdFloatReduceCmp            0      0.00%     53.06% # Class of committed instruction
system.cpu.op_class_0::SimdAes                      0      0.00%     53.06% # Class of committed instruction
system.cpu.op_class_0::SimdAesMix                   0      0.00%     53.06% # Class of committed instruction
system.cpu.op_class_0::SimdSha1Hash                 0      0.00%     53.06% # Class of committed instruction
system.cpu.op_class_0::SimdSha1Hash2                0      0.00%     53.06% # Class of committed instruction
system.cpu.op_class_0::SimdSha256Hash               0      0.00%     53.06% # Class of committed instruction
system.cpu.op_class_0::SimdSha256Hash2              0      0.00%     53.06% # Class of committed instruction
system.cpu.op_class_0::SimdShaSigma2                0      0.00%     53.06% # Class of committed instruction
system.cpu.op_class_0::SimdShaSigma3                0      0.00%     53.06% # Class of committed instruction
system.cpu.op_class_0::SimdPredAlu                  0      0.00%     53.06% # Class of committed instruction
system.cpu.op_class_0::MemRead                2082689      1.13%     54.20% # Class of committed instruction
system.cpu.op_class_0::MemWrite              84380734     45.80%    100.00% # Class of committed instruction
system.cpu.op_class_0::FloatMemRead                 0      0.00%    100.00% # Class of committed instruction
system.cpu.op_class_0::FloatMemWrite                0      0.00%    100.00% # Class of committed instruction
system.cpu.op_class_0::IprAccess                    0      0.00%    100.00% # Class of committed instruction
system.cpu.op_class_0::InstPrefetch                 0      0.00%    100.00% # Class of committed instruction
system.cpu.op_class_0::total                184218644                       # Class of committed instruction
system.cpu.tickCycles                       221782856                       # Number of cycles that the object actually ticked
system.cpu.workload.numSyscalls                    18                       # Number of system calls
system.membus.snoop_filter.hit_multi_requests            0                       # Number of requests hitting in the snoop filter with multiple (>1) holders of the requested data.
system.membus.snoop_filter.hit_multi_snoops            0                       # Number of snoops hitting in the snoop filter with multiple (>1) holders of the requested data.
system.membus.snoop_filter.hit_single_requests      5259294                       # Number of requests hitting in the snoop filter with a single holder of the requested data.
system.membus.snoop_filter.hit_single_snoops            0                       # Number of snoops hitting in the snoop filter with a single holder of the requested data.
system.membus.snoop_filter.tot_requests      10523181                       # Total number of requests made to the snoop filter.
system.membus.snoop_filter.tot_snoops               0                       # Total number of snoops made to the snoop filter.
system.tol2bus.snoop_filter.hit_multi_requests          654                       # Number of requests hitting in the snoop filter with multiple (>1) holders of the requested data.
system.tol2bus.snoop_filter.hit_multi_snoops            0                       # Number of snoops hitting in the snoop filter with multiple (>1) holders of the requested data.
system.tol2bus.snoop_filter.hit_single_requests      5315547                       # Number of requests hitting in the snoop filter with a single holder of the requested data.
system.tol2bus.snoop_filter.hit_single_snoops          613                       # Number of snoops hitting in the snoop filter with a single holder of the requested data.
system.tol2bus.snoop_filter.tot_requests     10632116                       # Total number of requests made to the snoop filter.
system.tol2bus.snoop_filter.tot_snoops            613                       # Total number of snoops made to the snoop filter.
system.clk_domain.clock                          1000                       # Clock period in ticks
system.cpu.branchPred.lookups                10658165                       # Number of BP lookups
system.cpu.branchPred.condPredicted          10649939                       # Number of conditional branches predicted
system.cpu.branchPred.condIncorrect              1441                       # Number of conditional branches incorrect
system.cpu.branchPred.BTBLookups             10650195                       # Number of BTB lookups
system.cpu.branchPred.BTBHits                10648858                       # Number of BTB hits
system.cpu.branchPred.BTBHitPct             99.987446                       # BTB Hit Percentage
system.cpu.branchPred.RASUsed                    2712                       # Number of times the RAS was used to get a target.
system.cpu.branchPred.RASIncorrect                  0                       # Number of incorrect RAS predictions.
system.cpu.branchPred.indirectLookups             192                       # Number of indirect predictor lookups.
system.cpu.branchPred.indirectHits                 24                       # Number of indirect target hits.
system.cpu.branchPred.indirectMisses              168                       # Number of indirect misses.
system.cpu.branchPred.indirectMispredicted          103                       # Number of mispredicted indirect branches.
system.cpu.dcache.demand_hits::.cpu.data     75804037                       # number of demand (read+write) hits
system.cpu.dcache.demand_hits::total         75804037                       # number of demand (read+write) hits
system.cpu.dcache.overall_hits::.cpu.data     75804071                       # number of overall hits
system.cpu.dcache.overall_hits::total        75804071                       # number of overall hits
system.cpu.dcache.demand_misses::.cpu.data     10576404                       # number of demand (read+write) misses
system.cpu.dcache.demand_misses::total       10576404                       # number of demand (read+write) misses
system.cpu.dcache.overall_misses::.cpu.data     10576441                       # number of overall misses
system.cpu.dcache.overall_misses::total      10576441                       # number of overall misses
system.cpu.dcache.demand_miss_latency::.cpu.data 1111589504998                       # number of demand (read+write) miss cycles
system.cpu.dcache.demand_miss_latency::total 1111589504998                       # number of demand (read+write) miss cycles
system.cpu.dcache.overall_miss_latency::.cpu.data 1111589504998                       # number of overall miss cycles
system.cpu.dcache.overall_miss_latency::total 1111589504998                       # number of overall miss cycles
system.cpu.dcache.demand_accesses::.cpu.data     86380441                       # number of demand (read+write) accesses
system.cpu.dcache.demand_accesses::total     86380441                       # number of demand (read+write) accesses
system.cpu.dcache.overall_accesses::.cpu.data     86380512                       # number of overall (read+write) accesses
system.cpu.dcache.overall_accesses::total     86380512                       # number of overall (read+write) accesses
system.cpu.dcache.demand_miss_rate::.cpu.data     0.122440                       # miss rate for demand accesses
system.cpu.dcache.demand_miss_rate::total     0.122440                       # miss rate for demand accesses
system.cpu.dcache.overall_miss_rate::.cpu.data     0.122440                       # miss rate for overall accesses
system.cpu.dcache.overall_miss_rate::total     0.122440                       # miss rate for overall accesses
system.cpu.dcache.demand_avg_miss_latency::.cpu.data 105100.892988                       # average overall miss latency
system.cpu.dcache.demand_avg_miss_latency::total 105100.892988                       # average overall miss latency
system.cpu.dcache.overall_avg_miss_latency::.cpu.data 105100.525309                       # average overall miss latency
system.cpu.dcache.overall_avg_miss_latency::total 105100.525309                       # average overall miss latency
system.cpu.dcache.blocked_cycles::no_mshrs          226                       # number of cycles access was blocked
system.cpu.dcache.blocked_cycles::no_targets            0                       # number of cycles access was blocked
system.cpu.dcache.blocked::no_mshrs                 4                       # number of cycles access was blocked
system.cpu.dcache.blocked::no_targets               0                       # number of cycles access was blocked
system.cpu.dcache.avg_blocked_cycles::no_mshrs    56.500000                       # average number of cycles each access was blocked
system.cpu.dcache.avg_blocked_cycles::no_targets          nan                       # average number of cycles each access was blocked
system.cpu.dcache.writebacks::.writebacks      5289212                       # number of writebacks
system.cpu.dcache.writebacks::total           5289212                       # number of writebacks
system.cpu.dcache.demand_mshr_hits::.cpu.data      5260519                       # number of demand (read+write) MSHR hits
system.cpu.dcache.demand_mshr_hits::total      5260519                       # number of demand (read+write) MSHR hits
system.cpu.dcache.overall_mshr_hits::.cpu.data      5260519                       # number of overall MSHR hits
system.cpu.dcache.overall_mshr_hits::total      5260519                       # number of overall MSHR hits
system.cpu.dcache.demand_mshr_misses::.cpu.data      5315885                       # number of demand (read+write) MSHR misses
system.cpu.dcache.demand_mshr_misses::total      5315885                       # number of demand (read+write) MSHR misses
system.cpu.dcache.overall_mshr_misses::.cpu.data      5315918                       # number of overall MSHR misses
system.cpu.dcache.overall_mshr_misses::total      5315918                       # number of overall MSHR misses
system.cpu.dcache.demand_mshr_miss_latency::.cpu.data 543787811000                       # number of demand (read+write) MSHR miss cycles
system.cpu.dcache.demand_mshr_miss_latency::total 543787811000                       # number of demand (read+write) MSHR miss cycles
system.cpu.dcache.overall_mshr_miss_latency::.cpu.data 543791399000                       # number of overall MSHR miss cycles
system.cpu.dcache.overall_mshr_miss_latency::total 543791399000                       # number of overall MSHR miss cycles
system.cpu.dcache.demand_mshr_miss_rate::.cpu.data     0.061540                       # mshr miss rate for demand accesses
system.cpu.dcache.demand_mshr_miss_rate::total     0.061540                       # mshr miss rate for demand accesses
system.cpu.dcache.overall_mshr_miss_rate::.cpu.data     0.061541                       # mshr miss rate for overall accesses
system.cpu.dcache.overall_mshr_miss_rate::total     0.061541                       # mshr miss rate for overall accesses
system.cpu.dcache.demand_avg_mshr_miss_latency::.cpu.data 102294.878651                       # average overall mshr miss latency
system.cpu.dcache.demand_avg_mshr_miss_latency::total 102294.878651                       # average overall mshr miss latency
system.cpu.dcache.overall_avg_mshr_miss_latency::.cpu.data 102294.918582                       # average overall mshr miss latency
system.cpu.dcache.overall_avg_mshr_miss_latency::total 102294.918582                       # average overall mshr miss latency
system.cpu.dcache.replacements                5315406                       # number of replacements
system.cpu.dcache.ReadReq_hits::.cpu.data      1994244                       # number of ReadReq hits
system.cpu.dcache.ReadReq_hits::total         1994244                       # number of ReadReq hits
system.cpu.dcache.ReadReq_misses::.cpu.data        49750                       # number of ReadReq misses
system.cpu.dcache.ReadReq_misses::total         49750                       # number of ReadReq misses
system.cpu.dcache.ReadReq_miss_latency::.cpu.data   2128381000                       # number of ReadReq miss cycles
system.cpu.dcache.ReadReq_miss_latency::total   2128381000                       # number of ReadReq miss cycles
system.cpu.dcache.ReadReq_accesses::.cpu.data      2043994                       # number of ReadReq accesses(hits+misses)
system.cpu.dcache.ReadReq_accesses::total      2043994                       # number of ReadReq accesses(hits+misses)
system.cpu.dcache.ReadReq_miss_rate::.cpu.data     0.024340                       # miss rate for ReadReq accesses
system.cpu.dcache.ReadReq_miss_rate::total     0.024340                       # miss rate for ReadReq accesses
system.cpu.dcache.ReadReq_avg_miss_latency::.cpu.data 42781.527638                       # average ReadReq miss latency
system.cpu.dcache.ReadReq_avg_miss_latency::total 42781.527638                       # average ReadReq miss latency
system.cpu.dcache.ReadReq_mshr_hits::.cpu.data           28                       # number of ReadReq MSHR hits
system.cpu.dcache.ReadReq_mshr_hits::total           28                       # number of ReadReq MSHR hits
system.cpu.dcache.ReadReq_mshr_misses::.cpu.data        49722                       # number of ReadReq MSHR misses
system.cpu.dcache.ReadReq_mshr_misses::total        49722                       # number of ReadReq MSHR misses
system.cpu.dcache.ReadReq_mshr_miss_latency::.cpu.data   2026585000                       # number of ReadReq MSHR miss cycles
system.cpu.dcache.ReadReq_mshr_miss_latency::total   2026585000                       # number of ReadReq MSHR miss cycles
system.cpu.dcache.ReadReq_mshr_miss_rate::.cpu.data     0.024326                       # mshr miss rate for ReadReq accesses
system.cpu.dcache.ReadReq_mshr_miss_rate::total     0.024326                       # mshr miss rate for ReadReq accesses
system.cpu.dcache.ReadReq_avg_mshr_miss_latency::.cpu.data 40758.316238                       # average ReadReq mshr miss latency
system.cpu.dcache.ReadReq_avg_mshr_miss_latency::total 40758.316238                       # average ReadReq mshr miss latency
system.cpu.dcache.WriteReq_hits::.cpu.data     73809793                       # number of WriteReq hits
system.cpu.dcache.WriteReq_hits::total       73809793                       # number of WriteReq hits
system.cpu.dcache.WriteReq_misses::.cpu.data     10526654                       # number of WriteReq misses
system.cpu.dcache.WriteReq_misses::total     10526654                       # number of WriteReq misses
system.cpu.dcache.WriteReq_miss_latency::.cpu.data 1109461123998                       # number of WriteReq miss cycles
system.cpu.dcache.WriteReq_miss_latency::total 1109461123998                       # number of WriteReq miss cycles
system.cpu.dcache.WriteReq_accesses::.cpu.data     84336447                       # number of WriteReq accesses(hits+misses)
system.cpu.dcache.WriteReq_accesses::total     84336447                       # number of WriteReq accesses(hits+misses)
system.cpu.dcache.WriteReq_miss_rate::.cpu.data     0.124817                       # miss rate for WriteReq accesses
system.cpu.dcache.WriteReq_miss_rate::total     0.124817                       # miss rate for WriteReq accesses
system.cpu.dcache.WriteReq_avg_miss_latency::.cpu.data 105395.420425                       # average WriteReq miss latency
system.cpu.dcache.WriteReq_avg_miss_latency::total 105395.420425                       # average WriteReq miss latency
system.cpu.dcache.WriteReq_mshr_hits::.cpu.data      5260491                       # number of WriteReq MSHR hits
system.cpu.dcache.WriteReq_mshr_hits::total      5260491                       # number of WriteReq MSHR hits
system.cpu.dcache.WriteReq_mshr_misses::.cpu.data      5266163                       # number of WriteReq MSHR misses
system.cpu.dcache.WriteReq_mshr_misses::total      5266163                       # number of WriteReq MSHR misses
system.cpu.dcache.WriteReq_mshr_miss_latency::.cpu.data 541761226000                       # number of WriteReq MSHR miss cycles
system.cpu.dcache.WriteReq_mshr_miss_latency::total 541761226000                       # number of WriteReq MSHR miss cycles
system.cpu.dcache.WriteReq_mshr_miss_rate::.cpu.data     0.062442                       # mshr miss rate for WriteReq accesses
system.cpu.dcache.WriteReq_mshr_miss_rate::total     0.062442                       # mshr miss rate for WriteReq accesses
system.cpu.dcache.WriteReq_avg_mshr_miss_latency::.cpu.data 102875.893891                       # average WriteReq mshr miss latency
system.cpu.dcache.WriteReq_avg_mshr_miss_latency::total 102875.893891                       # average WriteReq mshr miss latency
system.cpu.dcache.SoftPFReq_hits::.cpu.data           34                       # number of SoftPFReq hits
system.cpu.dcache.SoftPFReq_hits::total            34                       # number of SoftPFReq hits
system.cpu.dcache.SoftPFReq_misses::.cpu.data           37                       # number of SoftPFReq misses
system.cpu.dcache.SoftPFReq_misses::total           37                       # number of SoftPFReq misses
system.cpu.dcache.SoftPFReq_accesses::.cpu.data           71                       # number of SoftPFReq accesses(hits+misses)
system.cpu.dcache.SoftPFReq_accesses::total           71                       # number of SoftPFReq accesses(hits+misses)
system.cpu.dcache.SoftPFReq_miss_rate::.cpu.data     0.521127                       # miss rate for SoftPFReq accesses
system.cpu.dcache.SoftPFReq_miss_rate::total     0.521127                       # miss rate for SoftPFReq accesses
system.cpu.dcache.SoftPFReq_mshr_misses::.cpu.data           33                       # number of SoftPFReq MSHR misses
system.cpu.dcache.SoftPFReq_mshr_misses::total           33                       # number of SoftPFReq MSHR misses
system.cpu.dcache.SoftPFReq_mshr_miss_latency::.cpu.data      3588000                       # number of SoftPFReq MSHR miss cycles
system.cpu.dcache.SoftPFReq_mshr_miss_latency::total      3588000                       # number of SoftPFReq MSHR miss cycles
system.cpu.dcache.SoftPFReq_mshr_miss_rate::.cpu.data     0.464789                       # mshr miss rate for SoftPFReq accesses
system.cpu.dcache.SoftPFReq_mshr_miss_rate::total     0.464789                       # mshr miss rate for SoftPFReq accesses
system.cpu.dcache.SoftPFReq_avg_mshr_miss_latency::.cpu.data 108727.272727                       # average SoftPFReq mshr miss latency
system.cpu.dcache.SoftPFReq_avg_mshr_miss_latency::total 108727.272727                       # average SoftPFReq mshr miss latency
system.cpu.dcache.LoadLockedReq_hits::.cpu.data           34                       # number of LoadLockedReq hits
system.cpu.dcache.LoadLockedReq_hits::total           34                       # number of LoadLockedReq hits
system.cpu.dcache.LoadLockedReq_accesses::.cpu.data           34                       # number of LoadLockedReq accesses(hits+misses)
system.cpu.dcache.LoadLockedReq_accesses::total           34                       # number of LoadLockedReq accesses(hits+misses)
system.cpu.dcache.StoreCondReq_hits::.cpu.data           34                       # number of StoreCondReq hits
system.cpu.dcache.StoreCondReq_hits::total           34                       # number of StoreCondReq hits
system.cpu.dcache.StoreCondReq_accesses::.cpu.data           34                       # number of StoreCondReq accesses(hits+misses)
system.cpu.dcache.StoreCondReq_accesses::total           34                       # number of StoreCondReq accesses(hits+misses)
system.cpu.dcache.power_state.pwrStateResidencyTicks::UNDEFINED 707576739000                       # Cumulative time (in ticks) in various power states
system.cpu.dcache.tags.tagsinuse           511.872625                       # Cycle average of tags in use
system.cpu.dcache.tags.total_refs            81120057                       # Total number of references to valid blocks.
system.cpu.dcache.tags.sampled_refs           5315918                       # Sample count of references to valid blocks.
system.cpu.dcache.tags.avg_refs             15.259840                       # Average number of references to valid blocks.
system.cpu.dcache.tags.warmup_cycle            223000                       # Cycle when the warmup percentage was hit.
system.cpu.dcache.tags.occ_blocks::.cpu.data   511.872625                       # Average occupied blocks per requestor
system.cpu.dcache.tags.occ_percent::.cpu.data     0.999751                       # Average percentage of cache occupancy
system.cpu.dcache.tags.occ_percent::total     0.999751                       # Average percentage of cache occupancy
system.cpu.dcache.tags.occ_task_id_blocks::1024          512                       # Occupied blocks per task id
system.cpu.dcache.tags.age_task_id_blocks_1024::0           74                       # Occupied blocks per task id
system.cpu.dcache.tags.age_task_id_blocks_1024::1          438                       # Occupied blocks per task id
system.cpu.dcache.tags.occ_task_id_percent::1024            1                       # Percentage of cache occupancy per task id
system.cpu.dcache.tags.tag_accesses          91696498                       # Number of tag accesses
system.cpu.dcache.tags.data_accesses         91696498                       # Number of data accesses
system.cpu.dcache.tags.power_state.pwrStateResidencyTicks::UNDEFINED 707576739000                       # Cumulative time (in ticks) in various power states
system.cpu.dtb.instHits                             0                       # ITB inst hits
system.cpu.dtb.instMisses                           0                       # ITB inst misses
system.cpu.dtb.readHits                             0                       # DTB read hits
system.cpu.dtb.readMisses                           0                       # DTB read misses
system.cpu.dtb.writeHits                            0                       # DTB write hits
system.cpu.dtb.writeMisses                          0                       # DTB write misses
system.cpu.dtb.inserts                              0                       # Number of times an entry is inserted into the TLB
system.cpu.dtb.flushTlb                             0                       # Number of times complete TLB was flushed
system.cpu.dtb.flushTlbMva                          0                       # Number of times TLB was flushed by MVA
system.cpu.dtb.flushTlbMvaAsid                      0                       # Number of times TLB was flushed by MVA & ASID
system.cpu.dtb.flushTlbAsid                         0                       # Number of times TLB was flushed by ASID
system.cpu.dtb.flushedEntries                       0                       # Number of entries that have been flushed from TLB
system.cpu.dtb.alignFaults                          0                       # Number of TLB faults due to alignment restrictions
system.cpu.dtb.prefetchFaults                       0                       # Number of TLB faults due to prefetch
system.cpu.dtb.domainFaults                         0                       # Number of TLB faults due to domain restrictions
system.cpu.dtb.permsFaults                          0                       # Number of TLB faults due to permissions restrictions
system.cpu.dtb.readAccesses                         0                       # DTB read accesses
system.cpu.dtb.writeAccesses                        0                       # DTB write accesses
system.cpu.dtb.instAccesses                         0                       # ITB inst accesses
system.cpu.dtb.hits                                 0                       # Total TLB (inst and data) hits
system.cpu.dtb.misses                               0                       # Total TLB (inst and data) misses
system.cpu.dtb.accesses                             0                       # Total TLB (inst and data) accesses
system.cpu.dtb.stage2_mmu.stage2_tlb.instHits            0                       # ITB inst hits
system.cpu.dtb.stage2_mmu.stage2_tlb.instMisses            0                       # ITB inst misses
system.cpu.dtb.stage2_mmu.stage2_tlb.readHits            0                       # DTB read hits
system.cpu.dtb.stage2_mmu.stage2_tlb.readMisses            0                       # DTB read misses
system.cpu.dtb.stage2_mmu.stage2_tlb.writeHits            0                       # DTB write hits
system.cpu.dtb.stage2_mmu.stage2_tlb.writeMisses            0                       # DTB write misses
system.cpu.dtb.stage2_mmu.stage2_tlb.inserts            0                       # Number of times an entry is inserted into the TLB
system.cpu.dtb.stage2_mmu.stage2_tlb.flushTlb            0                       # Number of times complete TLB was flushed
system.cpu.dtb.stage2_mmu.stage2_tlb.flushTlbMva            0                       # Number of times TLB was flushed by MVA
system.cpu.dtb.stage2_mmu.stage2_tlb.flushTlbMvaAsid            0                       # Number of times TLB was flushed by MVA & ASID
system.cpu.dtb.stage2_mmu.stage2_tlb.flushTlbAsid            0                       # Number of times TLB was flushed by ASID
system.cpu.dtb.stage2_mmu.stage2_tlb.flushedEntries            0                       # Number of entries that have been flushed from TLB
system.cpu.dtb.stage2_mmu.stage2_tlb.alignFaults            0                       # Number of TLB faults due to alignment restrictions
system.cpu.dtb.stage2_mmu.stage2_tlb.prefetchFaults            0                       # Number of TLB faults due to prefetch
system.cpu.dtb.stage2_mmu.stage2_tlb.domainFaults            0                       # Number of TLB faults due to domain restrictions
system.cpu.dtb.stage2_mmu.stage2_tlb.permsFaults            0                       # Number of TLB faults due to permissions restrictions
system.cpu.dtb.stage2_mmu.stage2_tlb.readAccesses            0                       # DTB read accesses
system.cpu.dtb.stage2_mmu.stage2_tlb.writeAccesses            0                       # DTB write accesses
system.cpu.dtb.stage2_mmu.stage2_tlb.instAccesses            0                       # ITB inst accesses
system.cpu.dtb.stage2_mmu.stage2_tlb.hits            0                       # Total TLB (inst and data) hits
system.cpu.dtb.stage2_mmu.stage2_tlb.misses            0                       # Total TLB (inst and data) misses
system.cpu.dtb.stage2_mmu.stage2_tlb.accesses            0                       # Total TLB (inst and data) accesses
system.cpu.dtb.stage2_mmu.stage2_tlb.walker.walks            0                       # Table walker walks requested
system.cpu.dtb.stage2_mmu.stage2_tlb.walker.requestOrigin_Requested::Data            0                       # Table walker requests started/completed, data/inst
system.cpu.dtb.stage2_mmu.stage2_tlb.walker.requestOrigin_Requested::Inst            0                       # Table walker requests started/completed, data/inst
system.cpu.dtb.stage2_mmu.stage2_tlb.walker.requestOrigin_Requested::total            0                       # Table walker requests started/completed, data/inst
system.cpu.dtb.stage2_mmu.stage2_tlb.walker.requestOrigin_Completed::Data            0                       # Table walker requests started/completed, data/inst
system.cpu.dtb.stage2_mmu.stage2_tlb.walker.requestOrigin_Completed::Inst            0                       # Table walker requests started/completed, data/inst
system.cpu.dtb.stage2_mmu.stage2_tlb.walker.requestOrigin_Completed::total            0                       # Table walker requests started/completed, data/inst
system.cpu.dtb.stage2_mmu.stage2_tlb.walker.requestOrigin::total            0                       # Table walker requests started/completed, data/inst
system.cpu.dtb.stage2_mmu.stage2_tlb.walker.power_state.pwrStateResidencyTicks::UNDEFINED 707576739000                       # Cumulative time (in ticks) in various power states
system.cpu.dtb.walker.walks                         0                       # Table walker walks requested
system.cpu.dtb.walker.requestOrigin_Requested::Data            0                       # Table walker requests started/completed, data/inst
system.cpu.dtb.walker.requestOrigin_Requested::Inst            0                       # Table walker requests started/completed, data/inst
system.cpu.dtb.walker.requestOrigin_Requested::total            0                       # Table walker requests started/completed, data/inst
system.cpu.dtb.walker.requestOrigin_Completed::Data            0                       # Table walker requests started/completed, data/inst
system.cpu.dtb.walker.requestOrigin_Completed::Inst            0                       # Table walker requests started/completed, data/inst
system.cpu.dtb.walker.requestOrigin_Completed::total            0                       # Table walker requests started/completed, data/inst
system.cpu.dtb.walker.requestOrigin::total            0                       # Table walker requests started/completed, data/inst
system.cpu.dtb.walker.power_state.pwrStateResidencyTicks::UNDEFINED 707576739000                       # Cumulative time (in ticks) in various power states
system.cpu.fetch2.intInstructions            45070765                       # Number of integer instructions successfully decoded
system.cpu.fetch2.fpInstructions                    0                       # Number of floating point instructions successfully decoded
system.cpu.fetch2.vecInstructions                   0                       # Number of SIMD instructions successfully decoded
system.cpu.fetch2.loadInstructions            2086378                       # Number of memory load instructions successfully decoded
system.cpu.fetch2.storeInstructions            169100                       # Number of memory store instructions successfully decoded
system.cpu.fetch2.amoInstructions                   0                       # Number of memory atomic instructions successfully decoded
system.cpu.icache.demand_hits::.cpu.inst     32133363                       # number of demand (read+write) hits
system.cpu.icache.demand_hits::total         32133363                       # number of demand (read+write) hits
system.cpu.icache.overall_hits::.cpu.inst     32133363                       # number of overall hits
system.cpu.icache.overall_hits::total        32133363                       # number of overall hits
system.cpu.icache.demand_misses::.cpu.inst          651                       # number of demand (read+write) misses
system.cpu.icache.demand_misses::total            651                       # number of demand (read+write) misses
system.cpu.icache.overall_misses::.cpu.inst          651                       # number of overall misses
system.cpu.icache.overall_misses::total           651                       # number of overall misses
system.cpu.icache.demand_miss_latency::.cpu.inst     63595000                       # number of demand (read+write) miss cycles
system.cpu.icache.demand_miss_latency::total     63595000                       # number of demand (read+write) miss cycles
system.cpu.icache.overall_miss_latency::.cpu.inst     63595000                       # number of overall miss cycles
system.cpu.icache.overall_miss_latency::total     63595000                       # number of overall miss cycles
system.cpu.icache.demand_accesses::.cpu.inst     32134014                       # number of demand (read+write) accesses
system.cpu.icache.demand_accesses::total     32134014                       # number of demand (read+write) accesses
system.cpu.icache.overall_accesses::.cpu.inst     32134014                       # number of overall (read+write) accesses
system.cpu.icache.overall_accesses::total     32134014                       # number of overall (read+write) accesses
system.cpu.icache.demand_miss_rate::.cpu.inst     0.000020                       # miss rate for demand accesses
system.cpu.icache.demand_miss_rate::total     0.000020                       # miss rate for demand accesses
system.cpu.icache.overall_miss_rate::.cpu.inst     0.000020                       # miss rate for overall accesses
system.cpu.icache.overall_miss_rate::total     0.000020                       # miss rate for overall accesses
system.cpu.icache.demand_avg_miss_latency::.cpu.inst 97688.172043                       # average overall miss latency
system.cpu.icache.demand_avg_miss_latency::total 97688.172043                       # average overall miss latency
system.cpu.icache.overall_avg_miss_latency::.cpu.inst 97688.172043                       # average overall miss latency
system.cpu.icache.overall_avg_miss_latency::total 97688.172043                       # average overall miss latency
system.cpu.icache.blocked_cycles::no_mshrs            0                       # number of cycles access was blocked
system.cpu.icache.blocked_cycles::no_targets            0                       # number of cycles access was blocked
system.cpu.icache.blocked::no_mshrs                 0                       # number of cycles access was blocked
system.cpu.icache.blocked::no_targets               0                       # number of cycles access was blocked
system.cpu.icache.avg_blocked_cycles::no_mshrs          nan                       # average number of cycles each access was blocked
system.cpu.icache.avg_blocked_cycles::no_targets          nan                       # average number of cycles each access was blocked
system.cpu.icache.writebacks::.writebacks          141                       # number of writebacks
system.cpu.icache.writebacks::total               141                       # number of writebacks
system.cpu.icache.demand_mshr_misses::.cpu.inst          651                       # number of demand (read+write) MSHR misses
system.cpu.icache.demand_mshr_misses::total          651                       # number of demand (read+write) MSHR misses
system.cpu.icache.overall_mshr_misses::.cpu.inst          651                       # number of overall MSHR misses
system.cpu.icache.overall_mshr_misses::total          651                       # number of overall MSHR misses
system.cpu.icache.demand_mshr_miss_latency::.cpu.inst     62293000                       # number of demand (read+write) MSHR miss cycles
system.cpu.icache.demand_mshr_miss_latency::total     62293000                       # number of demand (read+write) MSHR miss cycles
system.cpu.icache.overall_mshr_miss_latency::.cpu.inst     62293000                       # number of overall MSHR miss cycles
system.cpu.icache.overall_mshr_miss_latency::total     62293000                       # number of overall MSHR miss cycles
system.cpu.icache.demand_mshr_miss_rate::.cpu.inst     0.000020                       # mshr miss rate for demand accesses
system.cpu.icache.demand_mshr_miss_rate::total     0.000020                       # mshr miss rate for demand accesses
system.cpu.icache.overall_mshr_miss_rate::.cpu.inst     0.000020                       # mshr miss rate for overall accesses
system.cpu.icache.overall_mshr_miss_rate::total     0.000020                       # mshr miss rate for overall accesses
system.cpu.icache.demand_avg_mshr_miss_latency::.cpu.inst 95688.172043                       # average overall mshr miss latency
system.cpu.icache.demand_avg_mshr_miss_latency::total 95688.172043                       # average overall mshr miss latency
system.cpu.icache.overall_avg_mshr_miss_latency::.cpu.inst 95688.172043                       # average overall mshr miss latency
system.cpu.icache.overall_avg_mshr_miss_latency::total 95688.172043                       # average overall mshr miss latency
system.cpu.icache.replacements                    141                       # number of replacements
system.cpu.icache.ReadReq_hits::.cpu.inst     32133363                       # number of ReadReq hits
system.cpu.icache.ReadReq_hits::total        32133363                       # number of ReadReq hits
system.cpu.icache.ReadReq_misses::.cpu.inst          651                       # number of ReadReq misses
system.cpu.icache.ReadReq_misses::total           651                       # number of ReadReq misses
system.cpu.icache.ReadReq_miss_latency::.cpu.inst     63595000                       # number of ReadReq miss cycles
system.cpu.icache.ReadReq_miss_latency::total     63595000                       # number of ReadReq miss cycles
system.cpu.icache.ReadReq_accesses::.cpu.inst     32134014                       # number of ReadReq accesses(hits+misses)
system.cpu.icache.ReadReq_accesses::total     32134014                       # number of ReadReq accesses(hits+misses)
system.cpu.icache.ReadReq_miss_rate::.cpu.inst     0.000020                       # miss rate for ReadReq accesses
system.cpu.icache.ReadReq_miss_rate::total     0.000020                       # miss rate for ReadReq accesses
system.cpu.icache.ReadReq_avg_miss_latency::.cpu.inst 97688.172043                       # average ReadReq miss latency
system.cpu.icache.ReadReq_avg_miss_latency::total 97688.172043                       # average ReadReq miss latency
system.cpu.icache.ReadReq_mshr_misses::.cpu.inst          651                       # number of ReadReq MSHR misses
system.cpu.icache.ReadReq_mshr_misses::total          651                       # number of ReadReq MSHR misses
system.cpu.icache.ReadReq_mshr_miss_latency::.cpu.inst     62293000                       # number of ReadReq MSHR miss cycles
system.cpu.icache.ReadReq_mshr_miss_latency::total     62293000                       # number of ReadReq MSHR miss cycles
system.cpu.icache.ReadReq_mshr_miss_rate::.cpu.inst     0.000020                       # mshr miss rate for ReadReq accesses
system.cpu.icache.ReadReq_mshr_miss_rate::total     0.000020                       # mshr miss rate for ReadReq accesses
system.cpu.icache.ReadReq_avg_mshr_miss_latency::.cpu.inst 95688.172043                       # average ReadReq mshr miss latency
system.cpu.icache.ReadReq_avg_mshr_miss_latency::total 95688.172043                       # average ReadReq mshr miss latency
system.cpu.icache.power_state.pwrStateResidencyTicks::UNDEFINED 707576739000                       # Cumulative time (in ticks) in various power states
system.cpu.icache.tags.tagsinuse           435.936814                       # Cycle average of tags in use
system.cpu.icache.tags.total_refs            32134014                       # Total number of references to valid blocks.
system.cpu.icache.tags.sampled_refs               651                       # Sample count of references to valid blocks.
system.cpu.icache.tags.avg_refs          49361.004608                       # Average number of references to valid blocks.
system.cpu.icache.tags.warmup_cycle            108000                       # Cycle when the warmup percentage was hit.
system.cpu.icache.tags.occ_blocks::.cpu.inst   435.936814                       # Average occupied blocks per requestor
system.cpu.icache.tags.occ_percent::.cpu.inst     0.425720                       # Average percentage of cache occupancy
system.cpu.icache.tags.occ_percent::total     0.425720                       # Average percentage of cache occupancy
system.cpu.icache.tags.occ_task_id_blocks::1024          510                       # Occupied blocks per task id
system.cpu.icache.tags.age_task_id_blocks_1024::4          510                       # Occupied blocks per task id
system.cpu.icache.tags.occ_task_id_percent::1024     0.498047                       # Percentage of cache occupancy per task id
system.cpu.icache.tags.tag_accesses          32134665                       # Number of tag accesses
system.cpu.icache.tags.data_accesses         32134665                       # Number of data accesses
system.cpu.icache.tags.power_state.pwrStateResidencyTicks::UNDEFINED 707576739000                       # Cumulative time (in ticks) in various power states
system.cpu.itb.instHits                             0                       # ITB inst hits
system.cpu.itb.instMisses                           0                       # ITB inst misses
system.cpu.itb.readHits                             0                       # DTB read hits
system.cpu.itb.readMisses                           0                       # DTB read misses
system.cpu.itb.writeHits                            0                       # DTB write hits
system.cpu.itb.writeMisses                          0                       # DTB write misses
system.cpu.itb.inserts                              0                       # Number of times an entry is inserted into the TLB
system.cpu.itb.flushTlb                             0                       # Number of times complete TLB was flushed
system.cpu.itb.flushTlbMva                          0                       # Number of times TLB was flushed by MVA
system.cpu.itb.flushTlbMvaAsid                      0                       # Number of times TLB was flushed by MVA & ASID
system.cpu.itb.flushTlbAsid                         0                       # Number of times TLB was flushed by ASID
system.cpu.itb.flushedEntries                       0                       # Number of entries that have been flushed from TLB
system.cpu.itb.alignFaults                          0                       # Number of TLB faults due to alignment restrictions
system.cpu.itb.prefetchFaults                       0                       # Number of TLB faults due to prefetch
system.cpu.itb.domainFaults                         0                       # Number of TLB faults due to domain restrictions
system.cpu.itb.permsFaults                          0                       # Number of TLB faults due to permissions restrictions
system.cpu.itb.readAccesses                         0                       # DTB read accesses
system.cpu.itb.writeAccesses                        0                       # DTB write accesses
system.cpu.itb.instAccesses                         0                       # ITB inst accesses
system.cpu.itb.hits                                 0                       # Total TLB (inst and data) hits
system.cpu.itb.misses                               0                       # Total TLB (inst and data) misses
system.cpu.itb.accesses                             0                       # Total TLB (inst and data) accesses
system.cpu.itb.stage2_mmu.stage2_tlb.instHits            0                       # ITB inst hits
system.cpu.itb.stage2_mmu.stage2_tlb.instMisses            0                       # ITB inst misses
system.cpu.itb.stage2_mmu.stage2_tlb.readHits            0                       # DTB read hits
system.cpu.itb.stage2_mmu.stage2_tlb.readMisses            0                       # DTB read misses
system.cpu.itb.stage2_mmu.stage2_tlb.writeHits            0                       # DTB write hits
system.cpu.itb.stage2_mmu.stage2_tlb.writeMisses            0                       # DTB write misses
system.cpu.itb.stage2_mmu.stage2_tlb.inserts            0                       # Number of times an entry is inserted into the TLB
system.cpu.itb.stage2_mmu.stage2_tlb.flushTlb            0                       # Number of times complete TLB was flushed
system.cpu.itb.stage2_mmu.stage2_tlb.flushTlbMva            0                       # Number of times TLB was flushed by MVA
system.cpu.itb.stage2_mmu.stage2_tlb.flushTlbMvaAsid            0                       # Number of times TLB was flushed by MVA & ASID
system.cpu.itb.stage2_mmu.stage2_tlb.flushTlbAsid            0                       # Number of times TLB was flushed by ASID
system.cpu.itb.stage2_mmu.stage2_tlb.flushedEntries            0                       # Number of entries that have been flushed from TLB
system.cpu.itb.stage2_mmu.stage2_tlb.alignFaults            0                       # Number of TLB faults due to alignment restrictions
system.cpu.itb.stage2_mmu.stage2_tlb.prefetchFaults            0                       # Number of TLB faults due to prefetch
system.cpu.itb.stage2_mmu.stage2_tlb.domainFaults            0                       # Number of TLB faults due to domain restrictions
system.cpu.itb.stage2_mmu.stage2_tlb.permsFaults            0                       # Number of TLB faults due to permissions restrictions
system.cpu.itb.stage2_mmu.stage2_tlb.readAccesses            0                       # DTB read accesses
system.cpu.itb.stage2_mmu.stage2_tlb.writeAccesses            0                       # DTB write accesses
system.cpu.itb.stage2_mmu.stage2_tlb.instAccesses            0                       # ITB inst accesses
system.cpu.itb.stage2_mmu.stage2_tlb.hits            0                       # Total TLB (inst and data) hits
system.cpu.itb.stage2_mmu.stage2_tlb.misses            0                       # Total TLB (inst and data) misses
system.cpu.itb.stage2_mmu.stage2_tlb.accesses            0                       # Total TLB (inst and data) accesses
system.cpu.itb.stage2_mmu.stage2_tlb.walker.walks            0                       # Table walker walks requested
system.cpu.itb.stage2_mmu.stage2_tlb.walker.requestOrigin_Requested::Data            0                       # Table walker requests started/completed, data/inst
system.cpu.itb.stage2_mmu.stage2_tlb.walker.requestOrigin_Requested::Inst            0                       # Table walker requests started/completed, data/inst
system.cpu.itb.stage2_mmu.stage2_tlb.walker.requestOrigin_Requested::total            0                       # Table walker requests started/completed, data/inst
system.cpu.itb.stage2_mmu.stage2_tlb.walker.requestOrigin_Completed::Data            0                       # Table walker requests started/completed, data/inst
system.cpu.itb.stage2_mmu.stage2_tlb.walker.requestOrigin_Completed::Inst            0                       # Table walker requests started/completed, data/inst
system.cpu.itb.stage2_mmu.stage2_tlb.walker.requestOrigin_Completed::total            0                       # Table walker requests started/completed, data/inst
system.cpu.itb.stage2_mmu.stage2_tlb.walker.requestOrigin::total            0                       # Table walker requests started/completed, data/inst
system.cpu.itb.stage2_mmu.stage2_tlb.walker.power_state.pwrStateResidencyTicks::UNDEFINED 707576739000                       # Cumulative time (in ticks) in various power states
system.cpu.itb.walker.walks                         0                       # Table walker walks requested
system.cpu.itb.walker.requestOrigin_Requested::Data            0                       # Table walker requests started/completed, data/inst
system.cpu.itb.walker.requestOrigin_Requested::Inst            0                       # Table walker requests started/completed, data/inst
system.cpu.itb.walker.requestOrigin_Requested::total            0                       # Table walker requests started/completed, data/inst
system.cpu.itb.walker.requestOrigin_Completed::Data            0                       # Table walker requests started/completed, data/inst
system.cpu.itb.walker.requestOrigin_Completed::Inst            0                       # Table walker requests started/completed, data/inst
system.cpu.itb.walker.requestOrigin_Completed::total            0                       # Table walker requests started/completed, data/inst
system.cpu.itb.walker.requestOrigin::total            0                       # Table walker requests started/completed, data/inst
system.cpu.itb.walker.power_state.pwrStateResidencyTicks::UNDEFINED 707576739000                       # Cumulative time (in ticks) in various power states
system.cpu.power_state.pwrStateResidencyTicks::ON 707576739000                       # Cumulative time (in ticks) in various power states
system.cpu.thread_0.numInsts                100000000                       # Number of Instructions committed
system.cpu.thread_0.numOps                  184218644                       # Number of Ops committed
system.cpu.thread_0.numMemRefs                      0                       # Number of Memory References
system.cpu_clk_domain.clock                      1000                       # Clock period in ticks
system.cpu_voltage_domain.voltage                   1                       # Voltage in Volts
system.l2.demand_hits::.cpu.inst                   59                       # number of demand (read+write) hits
system.l2.demand_hits::.cpu.data                52603                       # number of demand (read+write) hits
system.l2.demand_hits::total                    52662                       # number of demand (read+write) hits
system.l2.overall_hits::.cpu.inst                  59                       # number of overall hits
system.l2.overall_hits::.cpu.data               52603                       # number of overall hits
system.l2.overall_hits::total                   52662                       # number of overall hits
system.l2.demand_misses::.cpu.inst                592                       # number of demand (read+write) misses
system.l2.demand_misses::.cpu.data            5263315                       # number of demand (read+write) misses
system.l2.demand_misses::total                5263907                       # number of demand (read+write) misses
system.l2.overall_misses::.cpu.inst               592                       # number of overall misses
system.l2.overall_misses::.cpu.data           5263315                       # number of overall misses
system.l2.overall_misses::total               5263907                       # number of overall misses
system.l2.demand_miss_latency::.cpu.inst     59049000                       # number of demand (read+write) miss cycles
system.l2.demand_miss_latency::.cpu.data 525917193000                       # number of demand (read+write) miss cycles
system.l2.demand_miss_latency::total     525976242000                       # number of demand (read+write) miss cycles
system.l2.overall_miss_latency::.cpu.inst     59049000                       # number of overall miss cycles
system.l2.overall_miss_latency::.cpu.data 525917193000                       # number of overall miss cycles
system.l2.overall_miss_latency::total    525976242000                       # number of overall miss cycles
system.l2.demand_accesses::.cpu.inst              651                       # number of demand (read+write) accesses
system.l2.demand_accesses::.cpu.data          5315918                       # number of demand (read+write) accesses
system.l2.demand_accesses::total              5316569                       # number of demand (read+write) accesses
system.l2.overall_accesses::.cpu.inst             651                       # number of overall (read+write) accesses
system.l2.overall_accesses::.cpu.data         5315918                       # number of overall (read+write) accesses
system.l2.overall_accesses::total             5316569                       # number of overall (read+write) accesses
system.l2.demand_miss_rate::.cpu.inst        0.909370                       # miss rate for demand accesses
system.l2.demand_miss_rate::.cpu.data        0.990105                       # miss rate for demand accesses
system.l2.demand_miss_rate::total            0.990095                       # miss rate for demand accesses
system.l2.overall_miss_rate::.cpu.inst       0.909370                       # miss rate for overall accesses
system.l2.overall_miss_rate::.cpu.data       0.990105                       # miss rate for overall accesses
system.l2.overall_miss_rate::total           0.990095                       # miss rate for overall accesses
system.l2.demand_avg_miss_latency::.cpu.inst 99744.932432                       # average overall miss latency
system.l2.demand_avg_miss_latency::.cpu.data 99921.284020                       # average overall miss latency
system.l2.demand_avg_miss_latency::total 99921.264186                       # average overall miss latency
system.l2.overall_avg_miss_latency::.cpu.inst 99744.932432                       # average overall miss latency
system.l2.overall_avg_miss_latency::.cpu.data 99921.284020                       # average overall miss latency
system.l2.overall_avg_miss_latency::total 99921.264186                       # average overall miss latency
system.l2.blocked_cycles::no_mshrs                  0                       # number of cycles access was blocked
system.l2.blocked_cycles::no_targets                0                       # number of cycles access was blocked
system.l2.blocked::no_mshrs                         0                       # number of cycles access was blocked
system.l2.blocked::no_targets                       0                       # number of cycles access was blocked
system.l2.avg_blocked_cycles::no_mshrs            nan                       # average number of cycles each access was blocked
system.l2.avg_blocked_cycles::no_targets          nan                       # average number of cycles each access was blocked
system.l2.writebacks::.writebacks             5258952                       # number of writebacks
system.l2.writebacks::total                   5258952                       # number of writebacks
system.l2.demand_mshr_hits::.cpu.inst               2                       # number of demand (read+write) MSHR hits
system.l2.demand_mshr_hits::.cpu.data               5                       # number of demand (read+write) MSHR hits
system.l2.demand_mshr_hits::total                   7                       # number of demand (read+write) MSHR hits
system.l2.overall_mshr_hits::.cpu.inst              2                       # number of overall MSHR hits
system.l2.overall_mshr_hits::.cpu.data              5                       # number of overall MSHR hits
system.l2.overall_mshr_hits::total                  7                       # number of overall MSHR hits
system.l2.demand_mshr_misses::.cpu.inst           590                       # number of demand (read+write) MSHR misses
system.l2.demand_mshr_misses::.cpu.data       5263310                       # number of demand (read+write) MSHR misses
system.l2.demand_mshr_misses::total           5263900                       # number of demand (read+write) MSHR misses
system.l2.overall_mshr_misses::.cpu.inst          590                       # number of overall MSHR misses
system.l2.overall_mshr_misses::.cpu.data      5263310                       # number of overall MSHR misses
system.l2.overall_mshr_misses::total          5263900                       # number of overall MSHR misses
system.l2.demand_mshr_miss_latency::.cpu.inst     47067000                       # number of demand (read+write) MSHR miss cycles
system.l2.demand_mshr_miss_latency::.cpu.data 420650588000                       # number of demand (read+write) MSHR miss cycles
system.l2.demand_mshr_miss_latency::total 420697655000                       # number of demand (read+write) MSHR miss cycles
system.l2.overall_mshr_miss_latency::.cpu.inst     47067000                       # number of overall MSHR miss cycles
system.l2.overall_mshr_miss_latency::.cpu.data 420650588000                       # number of overall MSHR miss cycles
system.l2.overall_mshr_miss_latency::total 420697655000                       # number of overall MSHR miss cycles
system.l2.demand_mshr_miss_rate::.cpu.inst     0.906298                       # mshr miss rate for demand accesses
system.l2.demand_mshr_miss_rate::.cpu.data     0.990104                       # mshr miss rate for demand accesses
system.l2.demand_mshr_miss_rate::total       0.990093                       # mshr miss rate for demand accesses
system.l2.overall_mshr_miss_rate::.cpu.inst     0.906298                       # mshr miss rate for overall accesses
system.l2.overall_mshr_miss_rate::.cpu.data     0.990104                       # mshr miss rate for overall accesses
system.l2.overall_mshr_miss_rate::total      0.990093                       # mshr miss rate for overall accesses
system.l2.demand_avg_mshr_miss_latency::.cpu.inst 79774.576271                       # average overall mshr miss latency
system.l2.demand_avg_mshr_miss_latency::.cpu.data 79921.301994                       # average overall mshr miss latency
system.l2.demand_avg_mshr_miss_latency::total 79921.285549                       # average overall mshr miss latency
system.l2.overall_avg_mshr_miss_latency::.cpu.inst 79774.576271                       # average overall mshr miss latency
system.l2.overall_avg_mshr_miss_latency::.cpu.data 79921.301994                       # average overall mshr miss latency
system.l2.overall_avg_mshr_miss_latency::total 79921.285549                       # average overall mshr miss latency
system.l2.replacements                        5259894                       # number of replacements
system.l2.WritebackDirty_hits::.writebacks      5289212                       # number of WritebackDirty hits
system.l2.WritebackDirty_hits::total          5289212                       # number of WritebackDirty hits
system.l2.WritebackDirty_accesses::.writebacks      5289212                       # number of WritebackDirty accesses(hits+misses)
system.l2.WritebackDirty_accesses::total      5289212                       # number of WritebackDirty accesses(hits+misses)
system.l2.WritebackClean_hits::.writebacks          141                       # number of WritebackClean hits
system.l2.WritebackClean_hits::total              141                       # number of WritebackClean hits
system.l2.WritebackClean_accesses::.writebacks          141                       # number of WritebackClean accesses(hits+misses)
system.l2.WritebackClean_accesses::total          141                       # number of WritebackClean accesses(hits+misses)
system.l2.ReadExReq_hits::.cpu.data              3143                       # number of ReadExReq hits
system.l2.ReadExReq_hits::total                  3143                       # number of ReadExReq hits
system.l2.ReadExReq_misses::.cpu.data         5263020                       # number of ReadExReq misses
system.l2.ReadExReq_misses::total             5263020                       # number of ReadExReq misses
system.l2.ReadExReq_miss_latency::.cpu.data 525885938000                       # number of ReadExReq miss cycles
system.l2.ReadExReq_miss_latency::total  525885938000                       # number of ReadExReq miss cycles
system.l2.ReadExReq_accesses::.cpu.data       5266163                       # number of ReadExReq accesses(hits+misses)
system.l2.ReadExReq_accesses::total           5266163                       # number of ReadExReq accesses(hits+misses)
system.l2.ReadExReq_miss_rate::.cpu.data     0.999403                       # miss rate for ReadExReq accesses
system.l2.ReadExReq_miss_rate::total         0.999403                       # miss rate for ReadExReq accesses
system.l2.ReadExReq_avg_miss_latency::.cpu.data 99920.946149                       # average ReadExReq miss latency
system.l2.ReadExReq_avg_miss_latency::total 99920.946149                       # average ReadExReq miss latency
system.l2.ReadExReq_mshr_misses::.cpu.data      5263020                       # number of ReadExReq MSHR misses
system.l2.ReadExReq_mshr_misses::total        5263020                       # number of ReadExReq MSHR misses
system.l2.ReadExReq_mshr_miss_latency::.cpu.data 420625538000                       # number of ReadExReq MSHR miss cycles
system.l2.ReadExReq_mshr_miss_latency::total 420625538000                       # number of ReadExReq MSHR miss cycles
system.l2.ReadExReq_mshr_miss_rate::.cpu.data     0.999403                       # mshr miss rate for ReadExReq accesses
system.l2.ReadExReq_mshr_miss_rate::total     0.999403                       # mshr miss rate for ReadExReq accesses
system.l2.ReadExReq_avg_mshr_miss_latency::.cpu.data 79920.946149                       # average ReadExReq mshr miss latency
system.l2.ReadExReq_avg_mshr_miss_latency::total 79920.946149                       # average ReadExReq mshr miss latency
system.l2.ReadCleanReq_hits::.cpu.inst             59                       # number of ReadCleanReq hits
system.l2.ReadCleanReq_hits::total                 59                       # number of ReadCleanReq hits
system.l2.ReadCleanReq_misses::.cpu.inst          592                       # number of ReadCleanReq misses
system.l2.ReadCleanReq_misses::total              592                       # number of ReadCleanReq misses
system.l2.ReadCleanReq_miss_latency::.cpu.inst     59049000                       # number of ReadCleanReq miss cycles
system.l2.ReadCleanReq_miss_latency::total     59049000                       # number of ReadCleanReq miss cycles
system.l2.ReadCleanReq_accesses::.cpu.inst          651                       # number of ReadCleanReq accesses(hits+misses)
system.l2.ReadCleanReq_accesses::total            651                       # number of ReadCleanReq accesses(hits+misses)
system.l2.ReadCleanReq_miss_rate::.cpu.inst     0.909370                       # miss rate for ReadCleanReq accesses
system.l2.ReadCleanReq_miss_rate::total      0.909370                       # miss rate for ReadCleanReq accesses
system.l2.ReadCleanReq_avg_miss_latency::.cpu.inst 99744.932432                       # average ReadCleanReq miss latency
system.l2.ReadCleanReq_avg_miss_latency::total 99744.932432                       # average ReadCleanReq miss latency
system.l2.ReadCleanReq_mshr_hits::.cpu.inst            2                       # number of ReadCleanReq MSHR hits
system.l2.ReadCleanReq_mshr_hits::total             2                       # number of ReadCleanReq MSHR hits
system.l2.ReadCleanReq_mshr_misses::.cpu.inst          590                       # number of ReadCleanReq MSHR misses
system.l2.ReadCleanReq_mshr_misses::total          590                       # number of ReadCleanReq MSHR misses
system.l2.ReadCleanReq_mshr_miss_latency::.cpu.inst     47067000                       # number of ReadCleanReq MSHR miss cycles
system.l2.ReadCleanReq_mshr_miss_latency::total     47067000                       # number of ReadCleanReq MSHR miss cycles
system.l2.ReadCleanReq_mshr_miss_rate::.cpu.inst     0.906298                       # mshr miss rate for ReadCleanReq accesses
system.l2.ReadCleanReq_mshr_miss_rate::total     0.906298                       # mshr miss rate for ReadCleanReq accesses
system.l2.ReadCleanReq_avg_mshr_miss_latency::.cpu.inst 79774.576271                       # average ReadCleanReq mshr miss latency
system.l2.ReadCleanReq_avg_mshr_miss_latency::total 79774.576271                       # average ReadCleanReq mshr miss latency
system.l2.ReadSharedReq_hits::.cpu.data         49460                       # number of ReadSharedReq hits
system.l2.ReadSharedReq_hits::total             49460                       # number of ReadSharedReq hits
system.l2.ReadSharedReq_misses::.cpu.data          295                       # number of ReadSharedReq misses
system.l2.ReadSharedReq_misses::total             295                       # number of ReadSharedReq misses
system.l2.ReadSharedReq_miss_latency::.cpu.data     31255000                       # number of ReadSharedReq miss cycles
system.l2.ReadSharedReq_miss_latency::total     31255000                       # number of ReadSharedReq miss cycles
system.l2.ReadSharedReq_accesses::.cpu.data        49755                       # number of ReadSharedReq accesses(hits+misses)
system.l2.ReadSharedReq_accesses::total         49755                       # number of ReadSharedReq accesses(hits+misses)
system.l2.ReadSharedReq_miss_rate::.cpu.data     0.005929                       # miss rate for ReadSharedReq accesses
system.l2.ReadSharedReq_miss_rate::total     0.005929                       # miss rate for ReadSharedReq accesses
system.l2.ReadSharedReq_avg_miss_latency::.cpu.data 105949.152542                       # average ReadSharedReq miss latency
system.l2.ReadSharedReq_avg_miss_latency::total 105949.152542                       # average ReadSharedReq miss latency
system.l2.ReadSharedReq_mshr_hits::.cpu.data            5                       # number of ReadSharedReq MSHR hits
system.l2.ReadSharedReq_mshr_hits::total            5                       # number of ReadSharedReq MSHR hits
system.l2.ReadSharedReq_mshr_misses::.cpu.data          290                       # number of ReadSharedReq MSHR misses
system.l2.ReadSharedReq_mshr_misses::total          290                       # number of ReadSharedReq MSHR misses
system.l2.ReadSharedReq_mshr_miss_latency::.cpu.data     25050000                       # number of ReadSharedReq MSHR miss cycles
system.l2.ReadSharedReq_mshr_miss_latency::total     25050000                       # number of ReadSharedReq MSHR miss cycles
system.l2.ReadSharedReq_mshr_miss_rate::.cpu.data     0.005829                       # mshr miss rate for ReadSharedReq accesses
system.l2.ReadSharedReq_mshr_miss_rate::total     0.005829                       # mshr miss rate for ReadSharedReq accesses
system.l2.ReadSharedReq_avg_mshr_miss_latency::.cpu.data 86379.310345                       # average ReadSharedReq mshr miss latency
system.l2.ReadSharedReq_avg_mshr_miss_latency::total 86379.310345                       # average ReadSharedReq mshr miss latency
system.l2.power_state.pwrStateResidencyTicks::UNDEFINED 707576739000                       # Cumulative time (in ticks) in various power states
system.l2.tags.tagsinuse                  4073.368508                       # Cycle average of tags in use
system.l2.tags.total_refs                    10631455                       # Total number of references to valid blocks.
system.l2.tags.sampled_refs                   5263990                       # Sample count of references to valid blocks.
system.l2.tags.avg_refs                      2.019657                       # Average number of references to valid blocks.
system.l2.tags.warmup_cycle                     87000                       # Cycle when the warmup percentage was hit.
system.l2.tags.occ_blocks::.writebacks       0.085337                       # Average occupied blocks per requestor
system.l2.tags.occ_blocks::.cpu.inst         3.168552                       # Average occupied blocks per requestor
system.l2.tags.occ_blocks::.cpu.data      4070.114619                       # Average occupied blocks per requestor
system.l2.tags.occ_percent::.writebacks      0.000021                       # Average percentage of cache occupancy
system.l2.tags.occ_percent::.cpu.inst        0.000774                       # Average percentage of cache occupancy
system.l2.tags.occ_percent::.cpu.data        0.993680                       # Average percentage of cache occupancy
system.l2.tags.occ_percent::total            0.994475                       # Average percentage of cache occupancy
system.l2.tags.occ_task_id_blocks::1024          4096                       # Occupied blocks per task id
system.l2.tags.age_task_id_blocks_1024::0           74                       # Occupied blocks per task id
system.l2.tags.age_task_id_blocks_1024::1          680                       # Occupied blocks per task id
system.l2.tags.age_task_id_blocks_1024::2         3342                       # Occupied blocks per task id
system.l2.tags.occ_task_id_percent::1024            1                       # Percentage of cache occupancy per task id
system.l2.tags.tag_accesses                  26526914                       # Number of tag accesses
system.l2.tags.data_accesses                 26526914                       # Number of data accesses
system.l2.tags.power_state.pwrStateResidencyTicks::UNDEFINED 707576739000                       # Cumulative time (in ticks) in various power states
system.mem_ctrls.avgPriority_.writebacks::samples   5258952.00                       # Average QoS priority value for accepted requests
system.mem_ctrls.avgPriority_.cpu.inst::samples       590.00                       # Average QoS priority value for accepted requests
system.mem_ctrls.avgPriority_.cpu.data::samples   5263307.00                       # Average QoS priority value for accepted requests
system.mem_ctrls.priorityMinLatency      0.000000018750                       # per QoS priority minimum request to response latency (s)
system.mem_ctrls.priorityMaxLatency      0.014498852500                       # per QoS priority maximum request to response latency (s)
system.mem_ctrls.numReadWriteTurnArounds       328201                       # Number of turnarounds from READ to WRITE
system.mem_ctrls.numWriteReadTurnArounds       328201                       # Number of turnarounds from WRITE to READ
system.mem_ctrls.numStayReadState            15637854                       # Number of times bus staying in READ state
system.mem_ctrls.numStayWriteState            4930754                       # Number of times bus staying in WRITE state
system.mem_ctrls.readReqs                     5263900                       # Number of read requests accepted
system.mem_ctrls.writeReqs                    5258952                       # Number of write requests accepted
system.mem_ctrls.readBursts                   5263900                       # Number of controller read bursts, including those serviced by the write queue
system.mem_ctrls.writeBursts                  5258952                       # Number of controller write bursts, including those merged in the write queue
system.mem_ctrls.servicedByWrQ                      3                       # Number of controller read bursts serviced by the write queue
system.mem_ctrls.mergedWrBursts                     0                       # Number of controller write bursts merged with an existing one
system.mem_ctrls.neitherReadNorWriteReqs            0                       # Number of requests that are neither read nor write
system.mem_ctrls.avgRdQLen                       1.00                       # Average read queue length when enqueuing
system.mem_ctrls.avgWrQLen                      25.68                       # Average write queue length when enqueuing
system.mem_ctrls.numRdRetry                         0                       # Number of times read queue was full causing retry
system.mem_ctrls.numWrRetry                         0                       # Number of times write queue was full causing retry
system.mem_ctrls.readPktSize::0                     0                       # Read request sizes (log2)
system.mem_ctrls.readPktSize::1                     0                       # Read request sizes (log2)
system.mem_ctrls.readPktSize::2                     0                       # Read request sizes (log2)
system.mem_ctrls.readPktSize::3                     0                       # Read request sizes (log2)
system.mem_ctrls.readPktSize::4                     0                       # Read request sizes (log2)
system.mem_ctrls.readPktSize::5                     0                       # Read request sizes (log2)
system.mem_ctrls.readPktSize::6               5263900                       # Read request sizes (log2)
system.mem_ctrls.writePktSize::0                    0                       # Write request sizes (log2)
system.mem_ctrls.writePktSize::1                    0                       # Write request sizes (log2)
system.mem_ctrls.writePktSize::2                    0                       # Write request sizes (log2)
system.mem_ctrls.writePktSize::3                    0                       # Write request sizes (log2)
system.mem_ctrls.writePktSize::4                    0                       # Write request sizes (log2)
system.mem_ctrls.writePktSize::5                    0                       # Write request sizes (log2)
system.mem_ctrls.writePktSize::6              5258952                       # Write request sizes (log2)
system.mem_ctrls.rdQLenPdf::0                 5263645                       # What read queue length does an incoming req see
system.mem_ctrls.rdQLenPdf::1                     229                       # What read queue length does an incoming req see
system.mem_ctrls.rdQLenPdf::2                      21                       # What read queue length does an incoming req see
system.mem_ctrls.rdQLenPdf::3                       1                       # What read queue length does an incoming req see
system.mem_ctrls.rdQLenPdf::4                       1                       # What read queue length does an incoming req see
system.mem_ctrls.rdQLenPdf::5                       0                       # What read queue length does an incoming req see
system.mem_ctrls.rdQLenPdf::6                       0                       # What read queue length does an incoming req see
system.mem_ctrls.rdQLenPdf::7                       0                       # What read queue length does an incoming req see
system.mem_ctrls.rdQLenPdf::8                       0                       # What read queue length does an incoming req see
system.mem_ctrls.rdQLenPdf::9                       0                       # What read queue length does an incoming req see
system.mem_ctrls.rdQLenPdf::10                      0                       # What read queue length does an incoming req see
system.mem_ctrls.rdQLenPdf::11                      0                       # What read queue length does an incoming req see
[...]
system.mem_ctrls.dram.bw_write::.writebacks    475669859                       # Write bandwidth from this memory (bytes/s)
system.mem_ctrls.dram.bw_write::total       475669859                       # Write bandwidth from this memory (bytes/s)
system.mem_ctrls.dram.bw_total::.writebacks    475669859                       # Total bandwidth to/from this memory (bytes/s)
system.mem_ctrls.dram.bw_total::.cpu.inst        53365                       # Total bandwidth to/from this memory (bytes/s)
system.mem_ctrls.dram.bw_total::.cpu.data    476064039                       # Total bandwidth to/from this memory (bytes/s)
system.mem_ctrls.dram.bw_total::total       951787263                       # Total bandwidth to/from this memory (bytes/s)
system.mem_ctrls.dram.readBursts              5263897                       # Number of DRAM read bursts
system.mem_ctrls.dram.writeBursts             5258926                       # Number of DRAM write bursts
system.mem_ctrls.dram.perBankRdBursts::0       329031                       # Per bank write bursts
system.mem_ctrls.dram.perBankRdBursts::1       329102                       # Per bank write bursts
system.mem_ctrls.dram.perBankRdBursts::2       329107                       # Per bank write bursts
system.mem_ctrls.dram.perBankRdBursts::3       329009                       # Per bank write bursts
system.mem_ctrls.dram.perBankRdBursts::4       329023                       # Per bank write bursts
system.mem_ctrls.dram.perBankRdBursts::5       329065                       # Per bank write bursts
system.mem_ctrls.dram.perBankRdBursts::6       329081                       # Per bank write bursts
system.mem_ctrls.dram.perBankRdBursts::7       328938                       # Per bank write bursts
system.mem_ctrls.dram.perBankRdBursts::8       328901                       # Per bank write bursts
system.mem_ctrls.dram.perBankRdBursts::9       328866                       # Per bank write bursts
system.mem_ctrls.dram.perBankRdBursts::10       328904                       # Per bank write bursts
system.mem_ctrls.dram.perBankRdBursts::11       328958                       # Per bank write bursts
system.mem_ctrls.dram.perBankRdBursts::12       329023                       # Per bank write bursts
system.mem_ctrls.dram.perBankRdBursts::13       329023                       # Per bank write bursts
system.mem_ctrls.dram.perBankRdBursts::14       329058                       # Per bank write bursts
system.mem_ctrls.dram.perBankRdBursts::15       328808                       # Per bank write bursts
system.mem_ctrls.dram.perBankWrBursts::0       328648                       # Per bank write bursts
system.mem_ctrls.dram.perBankWrBursts::1       328758                       # Per bank write bursts
system.mem_ctrls.dram.perBankWrBursts::2       328797                       # Per bank write bursts
system.mem_ctrls.dram.perBankWrBursts::3       328722                       # Per bank write bursts
system.mem_ctrls.dram.perBankWrBursts::4       328761                       # Per bank write bursts
system.mem_ctrls.dram.perBankWrBursts::5       328765                       # Per bank write bursts
system.mem_ctrls.dram.perBankWrBursts::6       328778                       # Per bank write bursts
system.mem_ctrls.dram.perBankWrBursts::7       328664                       # Per bank write bursts
system.mem_ctrls.dram.perBankWrBursts::8       328576                       # Per bank write bursts
system.mem_ctrls.dram.perBankWrBursts::9       328576                       # Per bank write bursts
system.mem_ctrls.dram.perBankWrBursts::10       328576                       # Per bank write bursts
system.mem_ctrls.dram.perBankWrBursts::11       328650                       # Per bank write bursts
system.mem_ctrls.dram.perBankWrBursts::12       328722                       # Per bank write bursts
system.mem_ctrls.dram.perBankWrBursts::13       328702                       # Per bank write bursts
system.mem_ctrls.dram.perBankWrBursts::14       328710                       # Per bank write bursts
system.mem_ctrls.dram.perBankWrBursts::15       328521                       # Per bank write bursts
system.mem_ctrls.dram.totQLat             52163151250                       # Total ticks spent queuing
system.mem_ctrls.dram.totBusLat           26319485000                       # Total ticks spent in databus transfers
system.mem_ctrls.dram.totMemAccLat       150861220000                       # Total ticks spent from burst creation until serviced by the DRAM
system.mem_ctrls.dram.avgQLat                 9909.61                       # Average queueing delay per DRAM burst
system.mem_ctrls.dram.avgBusLat               5000.00                       # Average bus latency per DRAM burst
system.mem_ctrls.dram.avgMemAccLat           28659.61                       # Average memory access latency per DRAM burst
system.mem_ctrls.dram.readRowHits             4809756                       # Number of row buffer hits during reads
system.mem_ctrls.dram.writeRowHits            4890857                       # Number of row buffer hits during writes
system.mem_ctrls.dram.readRowHitRate            91.37                       # Row buffer hit rate for reads
system.mem_ctrls.dram.writeRowHitRate           93.00                       # Row buffer hit rate for writes
system.mem_ctrls.dram.bytesPerActivate::samples       822209                       # Bytes accessed per row activation
system.mem_ctrls.dram.bytesPerActivate::mean   819.086339                       # Bytes accessed per row activation
system.mem_ctrls.dram.bytesPerActivate::gmean   695.449957                       # Bytes accessed per row activation
system.mem_ctrls.dram.bytesPerActivate::stdev   315.740460                       # Bytes accessed per row activation
system.mem_ctrls.dram.bytesPerActivate::0-127        37843      4.60%      4.60% # Bytes accessed per row activation
system.mem_ctrls.dram.bytesPerActivate::128-255        33105      4.03%      8.63% # Bytes accessed per row activation
system.mem_ctrls.dram.bytesPerActivate::256-383        43235      5.26%     13.89% # Bytes accessed per row activation
system.mem_ctrls.dram.bytesPerActivate::384-511        40582      4.94%     18.82% # Bytes accessed per row activation
system.mem_ctrls.dram.bytesPerActivate::512-639        41599      5.06%     23.88% # Bytes accessed per row activation
system.mem_ctrls.dram.bytesPerActivate::640-767        35395      4.30%     28.19% # Bytes accessed per row activation
system.mem_ctrls.dram.bytesPerActivate::768-895        40645      4.94%     33.13% # Bytes accessed per row activation
system.mem_ctrls.dram.bytesPerActivate::896-1023        42616      5.18%     38.31% # Bytes accessed per row activation
system.mem_ctrls.dram.bytesPerActivate::1024-1151       507189     61.69%    100.00% # Bytes accessed per row activation
system.mem_ctrls.dram.bytesPerActivate::total       822209                       # Bytes accessed per row activation
system.mem_ctrls.dram.bytesRead             336889408                       # Total number of bytes read from DRAM
system.mem_ctrls.dram.bytesWritten          336571264                       # Total number of bytes written to DRAM
system.mem_ctrls.dram.avgRdBW              476.117133                       # Average DRAM read bandwidth in MiBytes/s
system.mem_ctrls.dram.avgWrBW              475.667508                       # Average DRAM write bandwidth in MiBytes/s
system.mem_ctrls.dram.peakBW                 12800.00                       # Theoretical peak bandwidth in MiByte/s
system.mem_ctrls.dram.busUtil                    7.44                       # Data bus utilization in percentage
system.mem_ctrls.dram.busUtilRead                3.72                       # Data bus utilization in percentage for reads
system.mem_ctrls.dram.busUtilWrite               3.72                       # Data bus utilization in percentage for writes
system.mem_ctrls.dram.pageHitRate               92.19                       # Row buffer hit rate, read and write combined
system.mem_ctrls.dram.power_state.pwrStateResidencyTicks::UNDEFINED 707576739000                       # Cumulative time (in ticks) in various power states
system.mem_ctrls.dram.rank0.actEnergy      2935553880                       # Energy for activate commands per rank (pJ)
system.mem_ctrls.dram.rank0.preEnergy      1560280095                       # Energy for precharge commands per rank (pJ)
system.mem_ctrls.dram.rank0.readEnergy    18795021840                       # Energy for read commands per rank (pJ)
system.mem_ctrls.dram.rank0.writeEnergy   13728041460                       # Energy for write commands per rank (pJ)
system.mem_ctrls.dram.rank0.refreshEnergy 55855410000.000008                       # Energy for refresh commands per rank (pJ)
system.mem_ctrls.dram.rank0.actBackEnergy 166009264680                       # Energy for active background per rank (pJ)
system.mem_ctrls.dram.rank0.preBackEnergy 131912192640                       # Energy for precharge background per rank (pJ)
system.mem_ctrls.dram.rank0.actPowerDownEnergy            0                       # Energy for active power-down per rank (pJ)
system.mem_ctrls.dram.rank0.prePowerDownEnergy            0                       # Energy for precharge power-down per rank (pJ)
system.mem_ctrls.dram.rank0.selfRefreshEnergy            0                       # Energy for self refresh per rank (pJ)
system.mem_ctrls.dram.rank0.totalEnergy  390795764595                       # Total energy per rank (pJ)
system.mem_ctrls.dram.rank0.averagePower   552.301599                       # Core power per rank (mW)
system.mem_ctrls.dram.rank0.totalIdleTime            0                       # Total Idle time Per DRAM Rank
system.mem_ctrls.dram.rank0.pwrStateTime::IDLE 338433112250                       # Time in different power states
system.mem_ctrls.dram.rank0.pwrStateTime::REF  23627500000                       # Time in different power states
system.mem_ctrls.dram.rank0.pwrStateTime::SREF            0                       # Time in different power states
system.mem_ctrls.dram.rank0.pwrStateTime::PRE_PDN            0                       # Time in different power states
system.mem_ctrls.dram.rank0.pwrStateTime::ACT 345516126750                       # Time in different power states
system.mem_ctrls.dram.rank0.pwrStateTime::ACT_PDN            0                       # Time in different power states
system.mem_ctrls.dram.rank1.actEnergy      2935025520                       # Energy for activate commands per rank (pJ)
system.mem_ctrls.dram.rank1.preEnergy      1560003060                       # Energy for precharge commands per rank (pJ)
system.mem_ctrls.dram.rank1.readEnergy    18789202740                       # Energy for read commands per rank (pJ)
system.mem_ctrls.dram.rank1.writeEnergy   13723552260                       # Energy for write commands per rank (pJ)
system.mem_ctrls.dram.rank1.refreshEnergy 55855410000.000008                       # Energy for refresh commands per rank (pJ)
system.mem_ctrls.dram.rank1.actBackEnergy 165984452010                       # Energy for active background per rank (pJ)
system.mem_ctrls.dram.rank1.preBackEnergy 131933087520                       # Energy for precharge background per rank (pJ)
system.mem_ctrls.dram.rank1.actPowerDownEnergy            0                       # Energy for active power-down per rank (pJ)
system.mem_ctrls.dram.rank1.prePowerDownEnergy            0                       # Energy for precharge power-down per rank (pJ)
system.mem_ctrls.dram.rank1.selfRefreshEnergy            0                       # Energy for self refresh per rank (pJ)
system.mem_ctrls.dram.rank1.totalEnergy  390780733110                       # Total energy per rank (pJ)
system.mem_ctrls.dram.rank1.averagePower   552.280356                       # Core power per rank (mW)
system.mem_ctrls.dram.rank1.totalIdleTime            0                       # Total Idle time Per DRAM Rank
system.mem_ctrls.dram.rank1.pwrStateTime::IDLE 338487835500                       # Time in different power states
system.mem_ctrls.dram.rank1.pwrStateTime::REF  23627500000                       # Time in different power states
system.mem_ctrls.dram.rank1.pwrStateTime::SREF            0                       # Time in different power states
system.mem_ctrls.dram.rank1.pwrStateTime::PRE_PDN            0                       # Time in different power states
system.mem_ctrls.dram.rank1.pwrStateTime::ACT 345461403500                       # Time in different power states
system.mem_ctrls.dram.rank1.pwrStateTime::ACT_PDN            0                       # Time in different power states
system.mem_ctrls.power_state.pwrStateResidencyTicks::UNDEFINED 707576739000                       # Cumulative time (in ticks) in various power states
system.membus.trans_dist::ReadResp                880                       # Transaction distribution
system.membus.trans_dist::WritebackDirty      5258952                       # Transaction distribution
system.membus.trans_dist::CleanEvict              329                       # Transaction distribution
system.membus.trans_dist::ReadExReq           5263020                       # Transaction distribution
system.membus.trans_dist::ReadExResp          5263020                       # Transaction distribution
system.membus.trans_dist::ReadSharedReq           880                       # Transaction distribution
system.membus.pkt_count_system.l2.mem_side_port::system.mem_ctrls.port     15787081                       # Packet count per connected requestor and responder (bytes)
system.membus.pkt_count::total               15787081                       # Packet count per connected requestor and responder (bytes)
system.membus.pkt_size_system.l2.mem_side_port::system.mem_ctrls.port    673462528                       # Cumulative packet size per connected requestor and responder (bytes)
system.membus.pkt_size::total               673462528                       # Cumulative packet size per connected requestor and responder (bytes)
system.membus.snoops                                0                       # Total snoops (count)
system.membus.snoopTraffic                          0                       # Total snoop traffic (bytes)
system.membus.snoop_fanout::samples           5263900                       # Request fanout histogram
system.membus.snoop_fanout::mean                    0                       # Request fanout histogram
system.membus.snoop_fanout::stdev                   0                       # Request fanout histogram
system.membus.snoop_fanout::underflows              0      0.00%      0.00% # Request fanout histogram
system.membus.snoop_fanout::0                 5263900    100.00%    100.00% # Request fanout histogram
system.membus.snoop_fanout::1                       0      0.00%    100.00% # Request fanout histogram
system.membus.snoop_fanout::overflows               0      0.00%    100.00% # Request fanout histogram
system.membus.snoop_fanout::min_value               0                       # Request fanout histogram
system.membus.snoop_fanout::max_value               0                       # Request fanout histogram
system.membus.snoop_fanout::total             5263900                       # Request fanout histogram
system.membus.power_state.pwrStateResidencyTicks::UNDEFINED 707576739000                       # Cumulative time (in ticks) in various power states
system.membus.reqLayer0.occupancy         31558989000                       # Layer occupancy (ticks)
system.membus.reqLayer0.utilization               4.5                       # Layer utilization (%)
system.membus.respLayer1.occupancy        27697002000                       # Layer occupancy (ticks)
system.membus.respLayer1.utilization              3.9                       # Layer utilization (%)
system.tol2bus.trans_dist::ReadResp             50406                       # Transaction distribution
system.tol2bus.trans_dist::WritebackDirty     10548164                       # Transaction distribution
system.tol2bus.trans_dist::WritebackClean          141                       # Transaction distribution
system.tol2bus.trans_dist::CleanEvict           27136                       # Transaction distribution
system.tol2bus.trans_dist::ReadExReq          5266163                       # Transaction distribution
system.tol2bus.trans_dist::ReadExResp         5266163                       # Transaction distribution
system.tol2bus.trans_dist::ReadCleanReq           651                       # Transaction distribution
system.tol2bus.trans_dist::ReadSharedReq        49755                       # Transaction distribution
system.tol2bus.pkt_count_system.cpu.icache.mem_side_port::system.l2.cpu_side_port         1443                       # Packet count per connected requestor and responder (bytes)
system.tol2bus.pkt_count_system.cpu.dcache.mem_side_port::system.l2.cpu_side_port     15947242                       # Packet count per connected requestor and responder (bytes)
system.tol2bus.pkt_count::total              15948685                       # Packet count per connected requestor and responder (bytes)
system.tol2bus.pkt_size_system.cpu.icache.mem_side_port::system.l2.cpu_side_port        50688                       # Cumulative packet size per connected requestor and responder (bytes)
system.tol2bus.pkt_size_system.cpu.dcache.mem_side_port::system.l2.cpu_side_port    678728320                       # Cumulative packet size per connected requestor and responder (bytes)
system.tol2bus.pkt_size::total              678779008                       # Cumulative packet size per connected requestor and responder (bytes)
system.tol2bus.snoops                         5259894                       # Total snoops (count)
system.tol2bus.snoopTraffic                 336572928                       # Total snoop traffic (bytes)
system.tol2bus.snoop_fanout::samples         10576463                       # Request fanout histogram
system.tol2bus.snoop_fanout::mean            0.000120                       # Request fanout histogram
system.tol2bus.snoop_fanout::stdev           0.010944                       # Request fanout histogram
system.tol2bus.snoop_fanout::underflows             0      0.00%      0.00% # Request fanout histogram
system.tol2bus.snoop_fanout::0               10575196     99.99%     99.99% # Request fanout histogram
system.tol2bus.snoop_fanout::1                   1267      0.01%    100.00% # Request fanout histogram
system.tol2bus.snoop_fanout::2                      0      0.00%    100.00% # Request fanout histogram
system.tol2bus.snoop_fanout::overflows              0      0.00%    100.00% # Request fanout histogram
system.tol2bus.snoop_fanout::min_value              0                       # Request fanout histogram
system.tol2bus.snoop_fanout::max_value              1                       # Request fanout histogram
system.tol2bus.snoop_fanout::total           10576463                       # Request fanout histogram
system.tol2bus.power_state.pwrStateResidencyTicks::UNDEFINED 707576739000                       # Cumulative time (in ticks) in various power states
system.tol2bus.reqLayer0.occupancy        21210822000                       # Layer occupancy (ticks)
system.tol2bus.reqLayer0.utilization              3.0                       # Layer utilization (%)
system.tol2bus.respLayer0.occupancy           1954998                       # Layer occupancy (ticks)
system.tol2bus.respLayer0.utilization             0.0                       # Layer utilization (%)
system.tol2bus.respLayer1.occupancy       15947759994                       # Layer occupancy (ticks)
system.tol2bus.respLayer1.utilization             2.3                       # Layer utilization (%)
system.voltage_domain.voltage                       1                       # Voltage in Volts

---------- End Simulation Statistics   ----------
