
---------- Begin Simulation Statistics ----------
final_tick                               115526260000                       # Number of ticks from beginning of simulation (restored from checkpoints and never reset)
host_inst_rate                                 400868                       # Simulator instruction rate (inst/s)
host_mem_usage                                 661120                       # Number of bytes of host memory used
host_op_rate                                   438677                       # Simulator op (including micro ops) rate (op/s)
host_seconds                                   249.46                       # Real time elapsed on the host
host_tick_rate                              463107141                       # Simulator tick rate (ticks/s)
sim_freq                                 1000000000000                       # Frequency of simulated ticks
sim_insts                                   100000000                       # Number of instructions simulated
sim_ops                                     109431833                       # Number of ops (including micro ops) simulated
sim_seconds                                  0.115526                       # Number of seconds simulated
sim_ticks                                115526260000                       # Number of ticks simulated
system.cpu.committedInsts                   100000000                       # Number of instructions committed
system.cpu.committedOps                     109431833                       # Number of ops (including micro ops) committed
system.cpu.cpi                               1.155263                       # CPI: cycles per instruction
system.cpu.discardedOps                        729866                       # Number of ops (including micro ops) which were discarded before commit
system.cpu.idleCycles                         4620488                       # Total number of cycles that the object has spent stopped
system.cpu.ipc                               0.865604                       # IPC: instructions per cycle
system.cpu.numCycles                        115526260                       # number of cpu cycles simulated
system.cpu.numFetchSuspends                         0                       # Number of times Execute suspended instruction fetching
system.cpu.numWorkItemsCompleted                    0                       # number of work items this cpu completed
system.cpu.numWorkItemsStarted                      0                       # number of work items this cpu started
system.cpu.op_class_0::No_OpClass                   0      0.00%      0.00% # Class of committed instruction
system.cpu.op_class_0::IntAlu                72954902     66.67%     66.67% # Class of committed instruction
system.cpu.op_class_0::IntMult                 568365      0.52%     67.19% # Class of committed instruction
system.cpu.op_class_0::IntDiv                       0      0.00%     67.19% # Class of committed instruction
system.cpu.op_class_0::FloatAdd                     0      0.00%     67.19% # Class of committed instruction
system.cpu.op_class_0::FloatCmp                     0      0.00%     67.19% # Class of committed instruction
system.cpu.op_class_0::FloatCvt                     0      0.00%     67.19% # Class of committed instruction
system.cpu.op_class_0::FloatMult                    0      0.00%     67.19% # Class of committed instruction
system.cpu.op_class_0::FloatMultAcc                 0      0.00%     67.19% # Class of committed instruction
system.cpu.op_class_0::FloatDiv                     0      0.00%     67.19% # Class of committed instruction
system.cpu.op_class_0::FloatMisc                    0      0.00%     67.19% # Class of committed instruction
system.cpu.op_class_0::FloatSqrt                    0      0.00%     67.19% # Class of committed instruction
system.cpu.op_class_0::SimdAdd                 241244      0.22%     67.41% # Class of committed instruction
system.cpu.op_class_0::SimdAddAcc                   0      0.00%     67.41% # Class of committed instruction
system.cpu.op_class_0::SimdAlu                 154714      0.14%     67.55% # Class of committed instruction
system.cpu.op_class_0::SimdCmp                 120622      0.11%     67.66% # Class of committed instruction
system.cpu.op_class_0::SimdCvt                      0      0.00%     67.66% # Class of committed instruction
system.cpu.op_class_0::SimdMisc                 44543      0.04%     67.70% # Class of committed instruction
system.cpu.op_class_0::SimdMult                     0      0.00%     67.70% # Class of committed instruction
system.cpu.op_class_0::SimdMultAcc                  0      0.00%     67.70% # Class of committed instruction
system.cpu.op_class_0::SimdShift                    0      0.00%     67.70% # Class of committed instruction
system.cpu.op_class_0::SimdShiftAcc                 0      0.00%     67.70% # Class of committed instruction
system.cpu.op_class_0::SimdDiv                      0      0.00%     67.70% # Class of committed instruction
system.cpu.op_class_0::SimdSqrt                     0      0.00%     67.70% # Class of committed instruction
system.cpu.op_class_0::SimdFloatAdd                 0      0.00%     67.70% # Class of committed instruction
system.cpu.op_class_0::SimdFloatAlu                 0      0.00%     67.70% # Class of committed instruction
system.cpu.op_class_0::SimdFloatCmp                 0      0.00%     67.70% # Class of committed instruction
system.cpu.op_class_0::SimdFloatCvt                 0      0.00%     67.70% # Class of committed instruction
system.cpu.op_class_0::SimdFloatDiv                 0      0.00%     67.70% # Class of committed instruction
system.cpu.op_class_0::SimdFloatMisc           166460      0.15%     67.85% # Class of committed instruction
system.cpu.op_class_0::SimdFloatMult                0      0.00%     67.85% # Class of committed instruction
system.cpu.op_class_0::SimdFloatMultAcc             0      0.00%     67.85% # Class of committed instruction
system.cpu.op_class_0::SimdFloatSqrt                0      0.00%     67.85% # Class of committed instruction
system.cpu.op_class_0::SimdReduceAdd                0      0.00%     67.85% # Class of committed instruction
system.cpu.op_class_0::SimdReduceAlu                0      0.00%     67.85% # Class of committed instruction
system.cpu.op_class_0::SimdReduceCmp                0      0.00%     67.85% # Class of committed instruction
system.cpu.op_class_0::SimdFloatReduceAdd            0      0.00%     67.85% # Class of committed instruction
system.cpu.op_class_0::SimdFloatReduceCmp            0      0.00%     67.85% # Class of committed instruction
system.cpu.op_class_0::SimdAes                      0      0.00%     67.85% # Class of committed instruction
system.cpu.op_class_0::SimdAesMix                   0      0.00%     67.85% # Class of committed instruction
system.cpu.op_class_0::SimdSha1Hash                 0      0.00%     67.85% # Class of committed instruction
system.cpu.op_class_0::SimdSha1Hash2                0      0.00%     67.85% # Class of committed instruction
system.cpu.op_class_0::SimdSha256Hash               0      0.00%     67.85% # Class of committed instruction
system.cpu.op_class_0::SimdSha256Hash2              0      0.00%     67.85% # Class of committed instruction
system.cpu.op_class_0::SimdShaSigma2                0      0.00%     67.85% # Class of committed instruction
system.cpu.op_class_0::SimdShaSigma3                0      0.00%     67.85% # Class of committed instruction
system.cpu.op_class_0::SimdPredAlu                  0      0.00%     67.85% # Class of committed instruction
system.cpu.op_class_0::MemRead               20646336     18.87%     86.72% # Class of committed instruction
system.cpu.op_class_0::MemWrite              14534647     13.28%    100.00% # Class of committed instruction
system.cpu.op_class_0::FloatMemRead                 0      0.00%    100.00% # Class of committed instruction
system.cpu.op_class_0::FloatMemWrite                0      0.00%    100.00% # Class of committed instruction
system.cpu.op_class_0::IprAccess                    0      0.00%    100.00% # Class of committed instruction
system.cpu.op_class_0::InstPrefetch                 0      0.00%    100.00% # Class of committed instruction
system.cpu.op_class_0::total                109431833                       # Class of committed instruction
system.cpu.tickCycles                       110905772                       # Number of cycles that the object actually ticked
system.cpu.workload.numSyscalls                    86                       # Number of system calls
system.membus.snoop_filter.hit_multi_requests            0                       # Number of requests hitting in the snoop filter with multiple (>1) holders of the requested data.
system.membus.snoop_filter.hit_multi_snoops            0                       # Number of snoops hitting in the snoop filter with multiple (>1) holders of the requested data.
system.membus.snoop_filter.hit_single_requests        37484                       # Number of requests hitting in the snoop filter with a single holder of the requested data.
system.membus.snoop_filter.hit_single_snoops            0                       # Number of snoops hitting in the snoop filter with a single holder of the requested data.
system.membus.snoop_filter.tot_requests         83594                       # Total number of requests made to the snoop filter.
system.membus.snoop_filter.tot_snoops               0                       # Total number of snoops made to the snoop filter.
system.tol2bus.snoop_filter.hit_multi_requests         2522                       # Number of requests hitting in the snoop filter with multiple (>1) holders of the requested data.
system.tol2bus.snoop_filter.hit_multi_snoops            0                       # Number of snoops hitting in the snoop filter with multiple (>1) holders of the requested data.
system.tol2bus.snoop_filter.hit_single_requests       125281                       # Number of requests hitting in the snoop filter with a single holder of the requested data.
system.tol2bus.snoop_filter.hit_single_snoops          438                       # Number of snoops hitting in the snoop filter with a single holder of the requested data.
system.tol2bus.snoop_filter.tot_requests       251509                       # Total number of requests made to the snoop filter.
system.tol2bus.snoop_filter.tot_snoops            438                       # Total number of snoops made to the snoop filter.
system.clk_domain.clock                          1000                       # Clock period in ticks
system.cpu.branchPred.lookups                20634754                       # Number of BP lookups
system.cpu.branchPred.condPredicted          16527278                       # Number of conditional branches predicted
system.cpu.branchPred.condIncorrect            153917                       # Number of conditional branches incorrect
system.cpu.branchPred.BTBLookups              8837519                       # Number of BTB lookups
system.cpu.branchPred.BTBHits                 8746889                       # Number of BTB hits
system.cpu.branchPred.BTBHitPct             98.974486                       # BTB Hit Percentage
system.cpu.branchPred.RASUsed                 1050592                       # Number of times the RAS was used to get a target.
system.cpu.branchPred.RASIncorrect                312                       # Number of incorrect RAS predictions.
system.cpu.branchPred.indirectLookups          433995                       # Number of indirect predictor lookups.
system.cpu.branchPred.indirectHits             300036                       # Number of indirect target hits.
system.cpu.branchPred.indirectMisses           133959                       # Number of indirect misses.
system.cpu.branchPred.indirectMispredicted         1205                       # Number of mispredicted indirect branches.
system.cpu.dcache.demand_hits::.cpu.data     35580161                       # number of demand (read+write) hits
system.cpu.dcache.demand_hits::total         35580161                       # number of demand (read+write) hits
system.cpu.dcache.overall_hits::.cpu.data     35583444                       # number of overall hits
system.cpu.dcache.overall_hits::total        35583444                       # number of overall hits
system.cpu.dcache.demand_misses::.cpu.data       156985                       # number of demand (read+write) misses
system.cpu.dcache.demand_misses::total         156985                       # number of demand (read+write) misses
system.cpu.dcache.overall_misses::.cpu.data       157075                       # number of overall misses
system.cpu.dcache.overall_misses::total        157075                       # number of overall misses
system.cpu.dcache.demand_miss_latency::.cpu.data   8826624000                       # number of demand (read+write) miss cycles
system.cpu.dcache.demand_miss_latency::total   8826624000                       # number of demand (read+write) miss cycles
system.cpu.dcache.overall_miss_latency::.cpu.data   8826624000                       # number of overall miss cycles
system.cpu.dcache.overall_miss_latency::total   8826624000                       # number of overall miss cycles
system.cpu.dcache.demand_accesses::.cpu.data     35737146                       # number of demand (read+write) accesses
system.cpu.dcache.demand_accesses::total     35737146                       # number of demand (read+write) accesses
system.cpu.dcache.overall_accesses::.cpu.data     35740519                       # number of overall (read+write) accesses
system.cpu.dcache.overall_accesses::total     35740519                       # number of overall (read+write) accesses
system.cpu.dcache.demand_miss_rate::.cpu.data     0.004393                       # miss rate for demand accesses
system.cpu.dcache.demand_miss_rate::total     0.004393                       # miss rate for demand accesses
system.cpu.dcache.overall_miss_rate::.cpu.data     0.004395                       # miss rate for overall accesses
system.cpu.dcache.overall_miss_rate::total     0.004395                       # miss rate for overall accesses
system.cpu.dcache.demand_avg_miss_latency::.cpu.data 56225.906934                       # average overall miss latency
system.cpu.dcache.demand_avg_miss_latency::total 56225.906934                       # average overall miss latency
system.cpu.dcache.overall_avg_miss_latency::.cpu.data 56193.690912                       # average overall miss latency
system.cpu.dcache.overall_avg_miss_latency::total 56193.690912                       # average overall miss latency
system.cpu.dcache.blocked_cycles::no_mshrs            0                       # number of cycles access was blocked
system.cpu.dcache.blocked_cycles::no_targets            0                       # number of cycles access was blocked
system.cpu.dcache.blocked::no_mshrs                 0                       # number of cycles access was blocked
system.cpu.dcache.blocked::no_targets               0                       # number of cycles access was blocked
system.cpu.dcache.avg_blocked_cycles::no_mshrs          nan                       # average number of cycles each access was blocked
system.cpu.dcache.avg_blocked_cycles::no_targets          nan                       # average number of cycles each access was blocked
system.cpu.dcache.writebacks::.writebacks        72349                       # number of writebacks
system.cpu.dcache.writebacks::total             72349                       # number of writebacks
system.cpu.dcache.demand_mshr_hits::.cpu.data        32038                       # number of demand (read+write) MSHR hits
system.cpu.dcache.demand_mshr_hits::total        32038                       # number of demand (read+write) MSHR hits
system.cpu.dcache.overall_mshr_hits::.cpu.data        32038                       # number of overall MSHR hits
system.cpu.dcache.overall_mshr_hits::total        32038                       # number of overall MSHR hits
system.cpu.dcache.demand_mshr_misses::.cpu.data       124947                       # number of demand (read+write) MSHR misses
system.cpu.dcache.demand_mshr_misses::total       124947                       # number of demand (read+write) MSHR misses
system.cpu.dcache.overall_mshr_misses::.cpu.data       125031                       # number of overall MSHR misses
system.cpu.dcache.overall_mshr_misses::total       125031                       # number of overall MSHR misses
system.cpu.dcache.demand_mshr_miss_latency::.cpu.data   6948231000                       # number of demand (read+write) MSHR miss cycles
system.cpu.dcache.demand_mshr_miss_latency::total   6948231000                       # number of demand (read+write) MSHR miss cycles
system.cpu.dcache.overall_mshr_miss_latency::.cpu.data   6951755000                       # number of overall MSHR miss cycles
system.cpu.dcache.overall_mshr_miss_latency::total   6951755000                       # number of overall MSHR miss cycles
system.cpu.dcache.demand_mshr_miss_rate::.cpu.data     0.003496                       # mshr miss rate for demand accesses
system.cpu.dcache.demand_mshr_miss_rate::total     0.003496                       # mshr miss rate for demand accesses
system.cpu.dcache.overall_mshr_miss_rate::.cpu.data     0.003498                       # mshr miss rate for overall accesses
system.cpu.dcache.overall_mshr_miss_rate::total     0.003498                       # mshr miss rate for overall accesses
system.cpu.dcache.demand_avg_mshr_miss_latency::.cpu.data 55609.426397                       # average overall mshr miss latency
system.cpu.dcache.demand_avg_mshr_miss_latency::total 55609.426397                       # average overall mshr miss latency
system.cpu.dcache.overall_avg_mshr_miss_latency::.cpu.data 55600.251138                       # average overall mshr miss latency
system.cpu.dcache.overall_avg_mshr_miss_latency::total 55600.251138                       # average overall mshr miss latency
system.cpu.dcache.replacements                 124519                       # number of replacements
system.cpu.dcache.ReadReq_hits::.cpu.data     21396541                       # number of ReadReq hits
system.cpu.dcache.ReadReq_hits::total        21396541                       # number of ReadReq hits
system.cpu.dcache.ReadReq_misses::.cpu.data        86010                       # number of ReadReq misses
system.cpu.dcache.ReadReq_misses::total         86010                       # number of ReadReq misses
system.cpu.dcache.ReadReq_miss_latency::.cpu.data   2913372000                       # number of ReadReq miss cycles
system.cpu.dcache.ReadReq_miss_latency::total   2913372000                       # number of ReadReq miss cycles
system.cpu.dcache.ReadReq_accesses::.cpu.data     21482551                       # number of ReadReq accesses(hits+misses)
system.cpu.dcache.ReadReq_accesses::total     21482551                       # number of ReadReq accesses(hits+misses)
system.cpu.dcache.ReadReq_miss_rate::.cpu.data     0.004004                       # miss rate for ReadReq accesses
system.cpu.dcache.ReadReq_miss_rate::total     0.004004                       # miss rate for ReadReq accesses
system.cpu.dcache.ReadReq_avg_miss_latency::.cpu.data 33872.479944                       # average ReadReq miss latency
system.cpu.dcache.ReadReq_avg_miss_latency::total 33872.479944                       # average ReadReq miss latency
system.cpu.dcache.ReadReq_mshr_hits::.cpu.data         8862                       # number of ReadReq MSHR hits
system.cpu.dcache.ReadReq_mshr_hits::total         8862                       # number of ReadReq MSHR hits
system.cpu.dcache.ReadReq_mshr_misses::.cpu.data        77148                       # number of ReadReq MSHR misses
system.cpu.dcache.ReadReq_mshr_misses::total        77148                       # number of ReadReq MSHR misses
system.cpu.dcache.ReadReq_mshr_miss_latency::.cpu.data   2495887000                       # number of ReadReq MSHR miss cycles
system.cpu.dcache.ReadReq_mshr_miss_latency::total   2495887000                       # number of ReadReq MSHR miss cycles
system.cpu.dcache.ReadReq_mshr_miss_rate::.cpu.data     0.003591                       # mshr miss rate for ReadReq accesses
system.cpu.dcache.ReadReq_mshr_miss_rate::total     0.003591                       # mshr miss rate for ReadReq accesses
system.cpu.dcache.ReadReq_avg_mshr_miss_latency::.cpu.data 32351.933945                       # average ReadReq mshr miss latency
system.cpu.dcache.ReadReq_avg_mshr_miss_latency::total 32351.933945                       # average ReadReq mshr miss latency
system.cpu.dcache.WriteReq_hits::.cpu.data     14183620                       # number of WriteReq hits
system.cpu.dcache.WriteReq_hits::total       14183620                       # number of WriteReq hits
system.cpu.dcache.WriteReq_misses::.cpu.data        70975                       # number of WriteReq misses
system.cpu.dcache.WriteReq_misses::total        70975                       # number of WriteReq misses
system.cpu.dcache.WriteReq_miss_latency::.cpu.data   5913252000                       # number of WriteReq miss cycles
system.cpu.dcache.WriteReq_miss_latency::total   5913252000                       # number of WriteReq miss cycles
system.cpu.dcache.WriteReq_accesses::.cpu.data     14254595                       # number of WriteReq accesses(hits+misses)
system.cpu.dcache.WriteReq_accesses::total     14254595                       # number of WriteReq accesses(hits+misses)
system.cpu.dcache.WriteReq_miss_rate::.cpu.data     0.004979                       # miss rate for WriteReq accesses
system.cpu.dcache.WriteReq_miss_rate::total     0.004979                       # miss rate for WriteReq accesses
system.cpu.dcache.WriteReq_avg_miss_latency::.cpu.data 83314.575555                       # average WriteReq miss latency
system.cpu.dcache.WriteReq_avg_miss_latency::total 83314.575555                       # average WriteReq miss latency
system.cpu.dcache.WriteReq_mshr_hits::.cpu.data        23176                       # number of WriteReq MSHR hits
system.cpu.dcache.WriteReq_mshr_hits::total        23176                       # number of WriteReq MSHR hits
system.cpu.dcache.WriteReq_mshr_misses::.cpu.data        47799                       # number of WriteReq MSHR misses
system.cpu.dcache.WriteReq_mshr_misses::total        47799                       # number of WriteReq MSHR misses
system.cpu.dcache.WriteReq_mshr_miss_latency::.cpu.data   4452344000                       # number of WriteReq MSHR miss cycles
system.cpu.dcache.WriteReq_mshr_miss_latency::total   4452344000                       # number of WriteReq MSHR miss cycles
system.cpu.dcache.WriteReq_mshr_miss_rate::.cpu.data     0.003353                       # mshr miss rate for WriteReq accesses
system.cpu.dcache.WriteReq_mshr_miss_rate::total     0.003353                       # mshr miss rate for WriteReq accesses
system.cpu.dcache.WriteReq_avg_mshr_miss_latency::.cpu.data 93147.220653                       # average WriteReq mshr miss latency
system.cpu.dcache.WriteReq_avg_mshr_miss_latency::total 93147.220653                       # average WriteReq mshr miss latency
system.cpu.dcache.SoftPFReq_hits::.cpu.data         3283                       # number of SoftPFReq hits
system.cpu.dcache.SoftPFReq_hits::total          3283                       # number of SoftPFReq hits
system.cpu.dcache.SoftPFReq_misses::.cpu.data           90                       # number of SoftPFReq misses
system.cpu.dcache.SoftPFReq_misses::total           90                       # number of SoftPFReq misses
system.cpu.dcache.SoftPFReq_accesses::.cpu.data         3373                       # number of SoftPFReq accesses(hits+misses)
system.cpu.dcache.SoftPFReq_accesses::total         3373                       # number of SoftPFReq accesses(hits+misses)
system.cpu.dcache.SoftPFReq_miss_rate::.cpu.data     0.026682                       # miss rate for SoftPFReq accesses
system.cpu.dcache.SoftPFReq_miss_rate::total     0.026682                       # miss rate for SoftPFReq accesses
system.cpu.dcache.SoftPFReq_mshr_misses::.cpu.data           84                       # number of SoftPFReq MSHR misses
system.cpu.dcache.SoftPFReq_mshr_misses::total           84                       # number of SoftPFReq MSHR misses
system.cpu.dcache.SoftPFReq_mshr_miss_latency::.cpu.data      3524000                       # number of SoftPFReq MSHR miss cycles
system.cpu.dcache.SoftPFReq_mshr_miss_latency::total      3524000                       # number of SoftPFReq MSHR miss cycles
system.cpu.dcache.SoftPFReq_mshr_miss_rate::.cpu.data     0.024904                       # mshr miss rate for SoftPFReq accesses
system.cpu.dcache.SoftPFReq_mshr_miss_rate::total     0.024904                       # mshr miss rate for SoftPFReq accesses
system.cpu.dcache.SoftPFReq_avg_mshr_miss_latency::.cpu.data 41952.380952                       # average SoftPFReq mshr miss latency
system.cpu.dcache.SoftPFReq_avg_mshr_miss_latency::total 41952.380952                       # average SoftPFReq mshr miss latency
system.cpu.dcache.LoadLockedReq_hits::.cpu.data        89080                       # number of LoadLockedReq hits
system.cpu.dcache.LoadLockedReq_hits::total        89080                       # number of LoadLockedReq hits
system.cpu.dcache.LoadLockedReq_misses::.cpu.data            1                       # number of LoadLockedReq misses
system.cpu.dcache.LoadLockedReq_misses::total            1                       # number of LoadLockedReq misses
system.cpu.dcache.LoadLockedReq_miss_latency::.cpu.data        26000                       # number of LoadLockedReq miss cycles
system.cpu.dcache.LoadLockedReq_miss_latency::total        26000                       # number of LoadLockedReq miss cycles
system.cpu.dcache.LoadLockedReq_accesses::.cpu.data        89081                       # number of LoadLockedReq accesses(hits+misses)
system.cpu.dcache.LoadLockedReq_accesses::total        89081                       # number of LoadLockedReq accesses(hits+misses)
system.cpu.dcache.LoadLockedReq_miss_rate::.cpu.data     0.000011                       # miss rate for LoadLockedReq accesses
system.cpu.dcache.LoadLockedReq_miss_rate::total     0.000011                       # miss rate for LoadLockedReq accesses
system.cpu.dcache.LoadLockedReq_avg_miss_latency::.cpu.data        26000                       # average LoadLockedReq miss latency
system.cpu.dcache.LoadLockedReq_avg_miss_latency::total        26000                       # average LoadLockedReq miss latency
system.cpu.dcache.LoadLockedReq_mshr_misses::.cpu.data            1                       # number of LoadLockedReq MSHR misses
system.cpu.dcache.LoadLockedReq_mshr_misses::total            1                       # number of LoadLockedReq MSHR misses
system.cpu.dcache.LoadLockedReq_mshr_miss_latency::.cpu.data        24000                       # number of LoadLockedReq MSHR miss cycles
system.cpu.dcache.LoadLockedReq_mshr_miss_latency::total        24000                       # number of LoadLockedReq MSHR miss cycles
system.cpu.dcache.LoadLockedReq_mshr_miss_rate::.cpu.data     0.000011                       # mshr miss rate for LoadLockedReq accesses
system.cpu.dcache.LoadLockedReq_mshr_miss_rate::total     0.000011                       # mshr miss rate for LoadLockedReq accesses
system.cpu.dcache.LoadLockedReq_avg_mshr_miss_latency::.cpu.data        24000                       # average LoadLockedReq mshr miss latency
system.cpu.dcache.LoadLockedReq_avg_mshr_miss_latency::total        24000                       # average LoadLockedReq mshr miss latency
system.cpu.dcache.StoreCondReq_hits::.cpu.data        89080                       # number of StoreCondReq hits
system.cpu.dcache.StoreCondReq_hits::total        89080                       # number of StoreCondReq hits
system.cpu.dcache.StoreCondReq_accesses::.cpu.data        89080                       # number of StoreCondReq accesses(hits+misses)
system.cpu.dcache.StoreCondReq_accesses::total        89080                       # number of StoreCondReq accesses(hits+misses)
system.cpu.dcache.power_state.pwrStateResidencyTicks::UNDEFINED 115526260000                       # Cumulative time (in ticks) in various power states
system.cpu.dcache.tags.tagsinuse           511.083533                       # Cycle average of tags in use
system.cpu.dcache.tags.total_refs            35886635                       # Total number of references to valid blocks.
system.cpu.dcache.tags.sampled_refs            125031                       # Sample count of references to valid blocks.
system.cpu.dcache.tags.avg_refs            287.021899                       # Average number of references to valid blocks.
system.cpu.dcache.tags.warmup_cycle            240000                       # Cycle when the warmup percentage was hit.
system.cpu.dcache.tags.occ_blocks::.cpu.data   511.083533                       # Average occupied blocks per requestor
system.cpu.dcache.tags.occ_percent::.cpu.data     0.998210                       # Average percentage of cache occupancy
system.cpu.dcache.tags.occ_percent::total     0.998210                       # Average percentage of cache occupancy
system.cpu.dcache.tags.occ_task_id_blocks::1024          512                       # Occupied blocks per task id
system.cpu.dcache.tags.age_task_id_blocks_1024::0            3                       # Occupied blocks per task id
system.cpu.dcache.tags.age_task_id_blocks_1024::1           32                       # Occupied blocks per task id
system.cpu.dcache.tags.age_task_id_blocks_1024::2          251                       # Occupied blocks per task id
system.cpu.dcache.tags.age_task_id_blocks_1024::3          226                       # Occupied blocks per task id
system.cpu.dcache.tags.occ_task_id_percent::1024            1                       # Percentage of cache occupancy per task id
system.cpu.dcache.tags.tag_accesses          36043711                       # Number of tag accesses
system.cpu.dcache.tags.data_accesses         36043711                       # Number of data accesses
system.cpu.dcache.tags.power_state.pwrStateResidencyTicks::UNDEFINED 115526260000                       # Cumulative time (in ticks) in various power states
system.cpu.dtb.instHits                             0                       # ITB inst hits
system.cpu.dtb.instMisses                           0                       # ITB inst misses
system.cpu.dtb.readHits                             0                       # DTB read hits
system.cpu.dtb.readMisses                           0                       # DTB read misses
system.cpu.dtb.writeHits                            0                       # DTB write hits
system.cpu.dtb.writeMisses                          0                       # DTB write misses
system.cpu.dtb.inserts                              0                       # Number of times an entry is inserted into the TLB
system.cpu.dtb.flushTlb                             0                       # Number of times complete TLB was flushed
system.cpu.dtb.flushTlbMva                          0                       # Number of times TLB was flushed by MVA
system.cpu.dtb.flushTlbMvaAsid                      0                       # Number of times TLB was flushed by MVA & ASID
system.cpu.dtb.flushTlbAsid                         0                       # Number of times TLB was flushed by ASID
system.cpu.dtb.flushedEntries                       0                       # Number of entries that have been flushed from TLB
system.cpu.dtb.alignFaults                          0                       # Number of TLB faults due to alignment restrictions
system.cpu.dtb.prefetchFaults                       0                       # Number of TLB faults due to prefetch
system.cpu.dtb.domainFaults                         0                       # Number of TLB faults due to domain restrictions
system.cpu.dtb.permsFaults                          0                       # Number of TLB faults due to permissions restrictions
system.cpu.dtb.readAccesses                         0                       # DTB read accesses
system.cpu.dtb.writeAccesses                        0                       # DTB write accesses
system.cpu.dtb.instAccesses                         0                       # ITB inst accesses
system.cpu.dtb.hits                                 0                       # Total TLB (inst and data) hits
system.cpu.dtb.misses                               0                       # Total TLB (inst and data) misses
system.cpu.dtb.accesses                             0                       # Total TLB (inst and data) accesses
system.cpu.dtb.stage2_mmu.stage2_tlb.instHits            0                       # ITB inst hits
system.cpu.dtb.stage2_mmu.stage2_tlb.instMisses            0                       # ITB inst misses
system.cpu.dtb.stage2_mmu.stage2_tlb.readHits            0                       # DTB read hits
system.cpu.dtb.stage2_mmu.stage2_tlb.readMisses            0                       # DTB read misses
system.cpu.dtb.stage2_mmu.stage2_tlb.writeHits            0                       # DTB write hits
system.cpu.dtb.stage2_mmu.stage2_tlb.writeMisses            0                       # DTB write misses
system.cpu.dtb.stage2_mmu.stage2_tlb.inserts            0                       # Number of times an entry is inserted into the TLB
system.cpu.dtb.stage2_mmu.stage2_tlb.flushTlb            0                       # Number of times complete TLB was flushed
system.cpu.dtb.stage2_mmu.stage2_tlb.flushTlbMva            0                       # Number of times TLB was flushed by MVA
system.cpu.dtb.stage2_mmu.stage2_tlb.flushTlbMvaAsid            0                       # Number of times TLB was flushed by MVA & ASID
system.cpu.dtb.stage2_mmu.stage2_tlb.flushTlbAsid            0                       # Number of times TLB was flushed by ASID
system.cpu.dtb.stage2_mmu.stage2_tlb.flushedEntries            0                       # Number of entries that have been flushed from TLB
system.cpu.dtb.stage2_mmu.stage2_tlb.alignFaults            0                       # Number of TLB faults due to alignment restrictions
system.cpu.dtb.stage2_mmu.stage2_tlb.prefetchFaults            0                       # Number of TLB faults due to prefetch
system.cpu.dtb.stage2_mmu.stage2_tlb.domainFaults            0                       # Number of TLB faults due to domain restrictions
system.cpu.dtb.stage2_mmu.stage2_tlb.permsFaults            0                       # Number of TLB faults due to permissions restrictions
system.cpu.dtb.stage2_mmu.stage2_tlb.readAccesses            0                       # DTB read accesses
system.cpu.dtb.stage2_mmu.stage2_tlb.writeAccesses            0                       # DTB write accesses
system.cpu.dtb.stage2_mmu.stage2_tlb.instAccesses            0                       # ITB inst accesses
system.cpu.dtb.stage2_mmu.stage2_tlb.hits            0                       # Total TLB (inst and data) hits
system.cpu.dtb.stage2_mmu.stage2_tlb.misses            0                       # Total TLB (inst and data) misses
system.cpu.dtb.stage2_mmu.stage2_tlb.accesses            0                       # Total TLB (inst and data) accesses
system.cpu.dtb.stage2_mmu.stage2_tlb.walker.walks            0                       # Table walker walks requested
system.cpu.dtb.stage2_mmu.stage2_tlb.walker.requestOrigin_Requested::Data            0                       # Table walker requests started/completed, data/inst
system.cpu.dtb.stage2_mmu.stage2_tlb.walker.requestOrigin_Requested::Inst            0                       # Table walker requests started/completed, data/inst
system.cpu.dtb.stage2_mmu.stage2_tlb.walker.requestOrigin_Requested::total            0                       # Table walker requests started/completed, data/inst
system.cpu.dtb.stage2_mmu.stage2_tlb.walker.requestOrigin_Completed::Data            0                       # Table walker requests started/completed, data/inst
system.cpu.dtb.stage2_mmu.stage2_tlb.walker.requestOrigin_Completed::Inst            0                       # Table walker requests started/completed, data/inst
system.cpu.dtb.stage2_mmu.stage2_tlb.walker.requestOrigin_Completed::total            0                       # Table walker requests started/completed, data/inst
system.cpu.dtb.stage2_mmu.stage2_tlb.walker.requestOrigin::total            0                       # Table walker requests started/completed, data/inst
system.cpu.dtb.stage2_mmu.stage2_tlb.walker.power_state.pwrStateResidencyTicks::UNDEFINED 115526260000                       # Cumulative time (in ticks) in various power states
system.cpu.dtb.walker.walks                         0                       # Table walker walks requested
system.cpu.dtb.walker.requestOrigin_Requested::Data            0                       # Table walker requests started/completed, data/inst
system.cpu.dtb.walker.requestOrigin_Requested::Inst            0                       # Table walker requests started/completed, data/inst
system.cpu.dtb.walker.requestOrigin_Requested::total            0                       # Table walker requests started/completed, data/inst
system.cpu.dtb.walker.requestOrigin_Completed::Data            0                       # Table walker requests started/completed, data/inst
system.cpu.dtb.walker.requestOrigin_Completed::Inst            0                       # Table walker requests started/completed, data/inst
system.cpu.dtb.walker.requestOrigin_Completed::total            0                       # Table walker requests started/completed, data/inst
system.cpu.dtb.walker.requestOrigin::total            0                       # Table walker requests started/completed, data/inst
system.cpu.dtb.walker.power_state.pwrStateResidencyTicks::UNDEFINED 115526260000                       # Cumulative time (in ticks) in various power states
system.cpu.fetch2.intInstructions            49922343                       # Number of integer instructions successfully decoded
system.cpu.fetch2.fpInstructions                    0                       # Number of floating point instructions successfully decoded
system.cpu.fetch2.vecInstructions                   0                       # Number of SIMD instructions successfully decoded
system.cpu.fetch2.loadInstructions           17208384                       # Number of memory load instructions successfully decoded
system.cpu.fetch2.storeInstructions          10039460                       # Number of memory store instructions successfully decoded
system.cpu.fetch2.amoInstructions                   0                       # Number of memory atomic instructions successfully decoded
system.cpu.icache.demand_hits::.cpu.inst     28668112                       # number of demand (read+write) hits
system.cpu.icache.demand_hits::total         28668112                       # number of demand (read+write) hits
system.cpu.icache.overall_hits::.cpu.inst     28668112                       # number of overall hits
system.cpu.icache.overall_hits::total        28668112                       # number of overall hits
system.cpu.icache.demand_misses::.cpu.inst         1200                       # number of demand (read+write) misses
system.cpu.icache.demand_misses::total           1200                       # number of demand (read+write) misses
system.cpu.icache.overall_misses::.cpu.inst         1200                       # number of overall misses
system.cpu.icache.overall_misses::total          1200                       # number of overall misses
system.cpu.icache.demand_miss_latency::.cpu.inst     70048000                       # number of demand (read+write) miss cycles
system.cpu.icache.demand_miss_latency::total     70048000                       # number of demand (read+write) miss cycles
system.cpu.icache.overall_miss_latency::.cpu.inst     70048000                       # number of overall miss cycles
system.cpu.icache.overall_miss_latency::total     70048000                       # number of overall miss cycles
system.cpu.icache.demand_accesses::.cpu.inst     28669312                       # number of demand (read+write) accesses
system.cpu.icache.demand_accesses::total     28669312                       # number of demand (read+write) accesses
system.cpu.icache.overall_accesses::.cpu.inst     28669312                       # number of overall (read+write) accesses
system.cpu.icache.overall_accesses::total     28669312                       # number of overall (read+write) accesses
system.cpu.icache.demand_miss_rate::.cpu.inst     0.000042                       # miss rate for demand accesses
system.cpu.icache.demand_miss_rate::total     0.000042                       # miss rate for demand accesses
system.cpu.icache.overall_miss_rate::.cpu.inst     0.000042                       # miss rate for overall accesses
system.cpu.icache.overall_miss_rate::total     0.000042                       # miss rate for overall accesses
system.cpu.icache.demand_avg_miss_latency::.cpu.inst 58373.333333                       # average overall miss latency
system.cpu.icache.demand_avg_miss_latency::total 58373.333333                       # average overall miss latency
system.cpu.icache.overall_avg_miss_latency::.cpu.inst 58373.333333                       # average overall miss latency
system.cpu.icache.overall_avg_miss_latency::total 58373.333333                       # average overall miss latency
system.cpu.icache.blocked_cycles::no_mshrs            0                       # number of cycles access was blocked
system.cpu.icache.blocked_cycles::no_targets            0                       # number of cycles access was blocked
system.cpu.icache.blocked::no_mshrs                 0                       # number of cycles access was blocked
system.cpu.icache.blocked::no_targets               0                       # number of cycles access was blocked
system.cpu.icache.avg_blocked_cycles::no_mshrs          nan                       # average number of cycles each access was blocked
system.cpu.icache.avg_blocked_cycles::no_targets          nan                       # average number of cycles each access was blocked
system.cpu.icache.writebacks::.writebacks          758                       # number of writebacks
system.cpu.icache.writebacks::total               758                       # number of writebacks
system.cpu.icache.demand_mshr_misses::.cpu.inst         1200                       # number of demand (read+write) MSHR misses
system.cpu.icache.demand_mshr_misses::total         1200                       # number of demand (read+write) MSHR misses
system.cpu.icache.overall_mshr_misses::.cpu.inst         1200                       # number of overall MSHR misses
system.cpu.icache.overall_mshr_misses::total         1200                       # number of overall MSHR misses
system.cpu.icache.demand_mshr_miss_latency::.cpu.inst     67648000                       # number of demand (read+write) MSHR miss cycles
system.cpu.icache.demand_mshr_miss_latency::total     67648000                       # number of demand (read+write) MSHR miss cycles
system.cpu.icache.overall_mshr_miss_latency::.cpu.inst     67648000                       # number of overall MSHR miss cycles
system.cpu.icache.overall_mshr_miss_latency::total     67648000                       # number of overall MSHR miss cycles
system.cpu.icache.demand_mshr_miss_rate::.cpu.inst     0.000042                       # mshr miss rate for demand accesses
system.cpu.icache.demand_mshr_miss_rate::total     0.000042                       # mshr miss rate for demand accesses
system.cpu.icache.overall_mshr_miss_rate::.cpu.inst     0.000042                       # mshr miss rate for overall accesses
system.cpu.icache.overall_mshr_miss_rate::total     0.000042                       # mshr miss rate for overall accesses
system.cpu.icache.demand_avg_mshr_miss_latency::.cpu.inst 56373.333333                       # average overall mshr miss latency
system.cpu.icache.demand_avg_mshr_miss_latency::total 56373.333333                       # average overall mshr miss latency
system.cpu.icache.overall_avg_mshr_miss_latency::.cpu.inst 56373.333333                       # average overall mshr miss latency
system.cpu.icache.overall_avg_mshr_miss_latency::total 56373.333333                       # average overall mshr miss latency
system.cpu.icache.replacements                    758                       # number of replacements
system.cpu.icache.ReadReq_hits::.cpu.inst     28668112                       # number of ReadReq hits
system.cpu.icache.ReadReq_hits::total        28668112                       # number of ReadReq hits
system.cpu.icache.ReadReq_misses::.cpu.inst         1200                       # number of ReadReq misses
system.cpu.icache.ReadReq_misses::total          1200                       # number of ReadReq misses
system.cpu.icache.ReadReq_miss_latency::.cpu.inst     70048000                       # number of ReadReq miss cycles
system.cpu.icache.ReadReq_miss_latency::total     70048000                       # number of ReadReq miss cycles
system.cpu.icache.ReadReq_accesses::.cpu.inst     28669312                       # number of ReadReq accesses(hits+misses)
system.cpu.icache.ReadReq_accesses::total     28669312                       # number of ReadReq accesses(hits+misses)
system.cpu.icache.ReadReq_miss_rate::.cpu.inst     0.000042                       # miss rate for ReadReq accesses
system.cpu.icache.ReadReq_miss_rate::total     0.000042                       # miss rate for ReadReq accesses
system.cpu.icache.ReadReq_avg_miss_latency::.cpu.inst 58373.333333                       # average ReadReq miss latency
system.cpu.icache.ReadReq_avg_miss_latency::total 58373.333333                       # average ReadReq miss latency
system.cpu.icache.ReadReq_mshr_misses::.cpu.inst         1200                       # number of ReadReq MSHR misses
system.cpu.icache.ReadReq_mshr_misses::total         1200                       # number of ReadReq MSHR misses
system.cpu.icache.ReadReq_mshr_miss_latency::.cpu.inst     67648000                       # number of ReadReq MSHR miss cycles
system.cpu.icache.ReadReq_mshr_miss_latency::total     67648000                       # number of ReadReq MSHR miss cycles
system.cpu.icache.ReadReq_mshr_miss_rate::.cpu.inst     0.000042                       # mshr miss rate for ReadReq accesses
system.cpu.icache.ReadReq_mshr_miss_rate::total     0.000042                       # mshr miss rate for ReadReq accesses
system.cpu.icache.ReadReq_avg_mshr_miss_latency::.cpu.inst 56373.333333                       # average ReadReq mshr miss latency
system.cpu.icache.ReadReq_avg_mshr_miss_latency::total 56373.333333                       # average ReadReq mshr miss latency
system.cpu.icache.power_state.pwrStateResidencyTicks::UNDEFINED 115526260000                       # Cumulative time (in ticks) in various power states
system.cpu.icache.tags.tagsinuse           441.579810                       # Cycle average of tags in use
system.cpu.icache.tags.total_refs            28669312                       # Total number of references to valid blocks.
system.cpu.icache.tags.sampled_refs              1200                       # Sample count of references to valid blocks.
system.cpu.icache.tags.avg_refs          23891.093333                       # Average number of references to valid blocks.
system.cpu.icache.tags.warmup_cycle            108000                       # Cycle when the warmup percentage was hit.
system.cpu.icache.tags.occ_blocks::.cpu.inst   441.579810                       # Average occupied blocks per requestor
system.cpu.icache.tags.occ_percent::.cpu.inst     0.431230                       # Average percentage of cache occupancy
system.cpu.icache.tags.occ_percent::total     0.431230                       # Average percentage of cache occupancy
system.cpu.icache.tags.occ_task_id_blocks::1024          442                       # Occupied blocks per task id
system.cpu.icache.tags.age_task_id_blocks_1024::3            5                       # Occupied blocks per task id
system.cpu.icache.tags.age_task_id_blocks_1024::4          437                       # Occupied blocks per task id
system.cpu.icache.tags.occ_task_id_percent::1024     0.431641                       # Percentage of cache occupancy per task id
system.cpu.icache.tags.tag_accesses          28670512                       # Number of tag accesses
system.cpu.icache.tags.data_accesses         28670512                       # Number of data accesses
system.cpu.icache.tags.power_state.pwrStateResidencyTicks::UNDEFINED 115526260000                       # Cumulative time (in ticks) in various power states
system.cpu.itb.instHits                             0                       # ITB inst hits
system.cpu.itb.instMisses                           0                       # ITB inst misses
system.cpu.itb.readHits                             0                       # DTB read hits
system.cpu.itb.readMisses                           0                       # DTB read misses
system.cpu.itb.writeHits                            0                       # DTB write hits
system.cpu.itb.writeMisses                          0                       # DTB write misses
system.cpu.itb.inserts                              0                       # Number of times an entry is inserted into the TLB
system.cpu.itb.flushTlb                             0                       # Number of times complete TLB was flushed
system.cpu.itb.flushTlbMva                          0                       # Number of times TLB was flushed by MVA
system.cpu.itb.flushTlbMvaAsid                      0                       # Number of times TLB was flushed by MVA & ASID
system.cpu.itb.flushTlbAsid                         0                       # Number of times TLB was flushed by ASID
system.cpu.itb.flushedEntries                       0                       # Number of entries that have been flushed from TLB
system.cpu.itb.alignFaults                          0                       # Number of TLB faults due to alignment restrictions
system.cpu.itb.prefetchFaults                       0                       # Number of TLB faults due to prefetch
system.cpu.itb.domainFaults                         0                       # Number of TLB faults due to domain restrictions
system.cpu.itb.permsFaults                          0                       # Number of TLB faults due to permissions restrictions
system.cpu.itb.readAccesses                         0                       # DTB read accesses
system.cpu.itb.writeAccesses                        0                       # DTB write accesses
system.cpu.itb.instAccesses                         0                       # ITB inst accesses
system.cpu.itb.hits                                 0                       # Total TLB (inst and data) hits
system.cpu.itb.misses                               0                       # Total TLB (inst and data) misses
system.cpu.itb.accesses                             0                       # Total TLB (inst and data) accesses
system.cpu.itb.stage2_mmu.stage2_tlb.instHits            0                       # ITB inst hits
system.cpu.itb.stage2_mmu.stage2_tlb.instMisses            0                       # ITB inst misses
system.cpu.itb.stage2_mmu.stage2_tlb.readHits            0                       # DTB read hits
system.cpu.itb.stage2_mmu.stage2_tlb.readMisses            0                       # DTB read misses
system.cpu.itb.stage2_mmu.stage2_tlb.writeHits            0                       # DTB write hits
system.cpu.itb.stage2_mmu.stage2_tlb.writeMisses            0                       # DTB write misses
system.cpu.itb.stage2_mmu.stage2_tlb.inserts            0                       # Number of times an entry is inserted into the TLB
system.cpu.itb.stage2_mmu.stage2_tlb.flushTlb            0                       # Number of times complete TLB was flushed
system.cpu.itb.stage2_mmu.stage2_tlb.flushTlbMva            0                       # Number of times TLB was flushed by MVA
system.cpu.itb.stage2_mmu.stage2_tlb.flushTlbMvaAsid            0                       # Number of times TLB was flushed by MVA & ASID
system.cpu.itb.stage2_mmu.stage2_tlb.flushTlbAsid            0                       # Number of times TLB was flushed by ASID
system.cpu.itb.stage2_mmu.stage2_tlb.flushedEntries            0                       # Number of entries that have been flushed from TLB
system.cpu.itb.stage2_mmu.stage2_tlb.alignFaults            0                       # Number of TLB faults due to alignment restrictions
system.cpu.itb.stage2_mmu.stage2_tlb.prefetchFaults            0                       # Number of TLB faults due to prefetch
system.cpu.itb.stage2_mmu.stage2_tlb.domainFaults            0                       # Number of TLB faults due to domain restrictions
system.cpu.itb.stage2_mmu.stage2_tlb.permsFaults            0                       # Number of TLB faults due to permissions restrictions
system.cpu.itb.stage2_mmu.stage2_tlb.readAccesses            0                       # DTB read accesses
system.cpu.itb.stage2_mmu.stage2_tlb.writeAccesses            0                       # DTB write accesses
system.cpu.itb.stage2_mmu.stage2_tlb.instAccesses            0                       # ITB inst accesses
system.cpu.itb.stage2_mmu.stage2_tlb.hits            0                       # Total TLB (inst and data) hits
system.cpu.itb.stage2_mmu.stage2_tlb.misses            0                       # Total TLB (inst and data) misses
system.cpu.itb.stage2_mmu.stage2_tlb.accesses            0                       # Total TLB (inst and data) accesses
system.cpu.itb.stage2_mmu.stage2_tlb.walker.walks            0                       # Table walker walks requested
system.cpu.itb.stage2_mmu.stage2_tlb.walker.requestOrigin_Requested::Data            0                       # Table walker requests started/completed, data/inst
system.cpu.itb.stage2_mmu.stage2_tlb.walker.requestOrigin_Requested::Inst            0                       # Table walker requests started/completed, data/inst
system.cpu.itb.stage2_mmu.stage2_tlb.walker.requestOrigin_Requested::total            0                       # Table walker requests started/completed, data/inst
system.cpu.itb.stage2_mmu.stage2_tlb.walker.requestOrigin_Completed::Data            0                       # Table walker requests started/completed, data/inst
system.cpu.itb.stage2_mmu.stage2_tlb.walker.requestOrigin_Completed::Inst            0                       # Table walker requests started/completed, data/inst
system.cpu.itb.stage2_mmu.stage2_tlb.walker.requestOrigin_Completed::total            0                       # Table walker requests started/completed, data/inst
system.cpu.itb.stage2_mmu.stage2_tlb.walker.requestOrigin::total            0                       # Table walker requests started/completed, data/inst
system.cpu.itb.stage2_mmu.stage2_tlb.walker.power_state.pwrStateResidencyTicks::UNDEFINED 115526260000                       # Cumulative time (in ticks) in various power states
system.cpu.itb.walker.walks                         0                       # Table walker walks requested
system.cpu.itb.walker.requestOrigin_Requested::Data            0                       # Table walker requests started/completed, data/inst
system.cpu.itb.walker.requestOrigin_Requested::Inst            0                       # Table walker requests started/completed, data/inst
system.cpu.itb.walker.requestOrigin_Requested::total            0                       # Table walker requests started/completed, data/inst
system.cpu.itb.walker.requestOrigin_Completed::Data            0                       # Table walker requests started/completed, data/inst
system.cpu.itb.walker.requestOrigin_Completed::Inst            0                       # Table walker requests started/completed, data/inst
system.cpu.itb.walker.requestOrigin_Completed::total            0                       # Table walker requests started/completed, data/inst
system.cpu.itb.walker.requestOrigin::total            0                       # Table walker requests started/completed, data/inst
system.cpu.itb.walker.power_state.pwrStateResidencyTicks::UNDEFINED 115526260000                       # Cumulative time (in ticks) in various power states
system.cpu.power_state.pwrStateResidencyTicks::ON 115526260000                       # Cumulative time (in ticks) in various power states
system.cpu.thread_0.numInsts                100000000                       # Number of Instructions committed
system.cpu.thread_0.numOps                  109431833                       # Number of Ops committed
system.cpu.thread_0.numMemRefs                      0                       # Number of Memory References
system.cpu_clk_domain.clock                      1000                       # Clock period in ticks
system.cpu_voltage_domain.voltage                   1                       # Voltage in Volts
system.l2.demand_hits::.cpu.inst                  690                       # number of demand (read+write) hits
system.l2.demand_hits::.cpu.data                79426                       # number of demand (read+write) hits
system.l2.demand_hits::total                    80116                       # number of demand (read+write) hits
system.l2.overall_hits::.cpu.inst                 690                       # number of overall hits
system.l2.overall_hits::.cpu.data               79426                       # number of overall hits
system.l2.overall_hits::total                   80116                       # number of overall hits
system.l2.demand_misses::.cpu.inst                510                       # number of demand (read+write) misses
system.l2.demand_misses::.cpu.data              45606                       # number of demand (read+write) misses
system.l2.demand_misses::total                  46116                       # number of demand (read+write) misses
system.l2.overall_misses::.cpu.inst               510                       # number of overall misses
system.l2.overall_misses::.cpu.data             45606                       # number of overall misses
system.l2.overall_misses::total                 46116                       # number of overall misses
system.l2.demand_miss_latency::.cpu.inst     49541000                       # number of demand (read+write) miss cycles
system.l2.demand_miss_latency::.cpu.data   4832797000                       # number of demand (read+write) miss cycles
system.l2.demand_miss_latency::total       4882338000                       # number of demand (read+write) miss cycles
system.l2.overall_miss_latency::.cpu.inst     49541000                       # number of overall miss cycles
system.l2.overall_miss_latency::.cpu.data   4832797000                       # number of overall miss cycles
system.l2.overall_miss_latency::total      4882338000                       # number of overall miss cycles
system.l2.demand_accesses::.cpu.inst             1200                       # number of demand (read+write) accesses
system.l2.demand_accesses::.cpu.data           125032                       # number of demand (read+write) accesses
system.l2.demand_accesses::total               126232                       # number of demand (read+write) accesses
system.l2.overall_accesses::.cpu.inst            1200                       # number of overall (read+write) accesses
system.l2.overall_accesses::.cpu.data          125032                       # number of overall (read+write) accesses
system.l2.overall_accesses::total              126232                       # number of overall (read+write) accesses
system.l2.demand_miss_rate::.cpu.inst        0.425000                       # miss rate for demand accesses
system.l2.demand_miss_rate::.cpu.data        0.364755                       # miss rate for demand accesses
system.l2.demand_miss_rate::total            0.365327                       # miss rate for demand accesses
system.l2.overall_miss_rate::.cpu.inst       0.425000                       # miss rate for overall accesses
system.l2.overall_miss_rate::.cpu.data       0.364755                       # miss rate for overall accesses
system.l2.overall_miss_rate::total           0.365327                       # miss rate for overall accesses
system.l2.demand_avg_miss_latency::.cpu.inst 97139.215686                       # average overall miss latency
system.l2.demand_avg_miss_latency::.cpu.data 105968.447134                       # average overall miss latency
system.l2.demand_avg_miss_latency::total 105870.804059                       # average overall miss latency
system.l2.overall_avg_miss_latency::.cpu.inst 97139.215686                       # average overall miss latency
system.l2.overall_avg_miss_latency::.cpu.data 105968.447134                       # average overall miss latency
system.l2.overall_avg_miss_latency::total 105870.804059                       # average overall miss latency
system.l2.blocked_cycles::no_mshrs                  0                       # number of cycles access was blocked
system.l2.blocked_cycles::no_targets                0                       # number of cycles access was blocked
system.l2.blocked::no_mshrs                         0                       # number of cycles access was blocked
system.l2.blocked::no_targets                       0                       # number of cycles access was blocked
system.l2.avg_blocked_cycles::no_mshrs            nan                       # average number of cycles each access was blocked
system.l2.avg_blocked_cycles::no_targets          nan                       # average number of cycles each access was blocked
system.l2.writebacks::.writebacks               37349                       # number of writebacks
system.l2.writebacks::total                     37349                       # number of writebacks
system.l2.demand_mshr_hits::.cpu.inst               1                       # number of demand (read+write) MSHR hits
system.l2.demand_mshr_hits::.cpu.data               5                       # number of demand (read+write) MSHR hits
system.l2.demand_mshr_hits::total                   6                       # number of demand (read+write) MSHR hits
system.l2.overall_mshr_hits::.cpu.inst              1                       # number of overall MSHR hits
system.l2.overall_mshr_hits::.cpu.data              5                       # number of overall MSHR hits
system.l2.overall_mshr_hits::total                  6                       # number of overall MSHR hits
system.l2.demand_mshr_misses::.cpu.inst           509                       # number of demand (read+write) MSHR misses
system.l2.demand_mshr_misses::.cpu.data         45601                       # number of demand (read+write) MSHR misses
system.l2.demand_mshr_misses::total             46110                       # number of demand (read+write) MSHR misses
system.l2.overall_mshr_misses::.cpu.inst          509                       # number of overall MSHR misses
system.l2.overall_mshr_misses::.cpu.data        45601                       # number of overall MSHR misses
system.l2.overall_mshr_misses::total            46110                       # number of overall MSHR misses
system.l2.demand_mshr_miss_latency::.cpu.inst     39281000                       # number of demand (read+write) MSHR miss cycles
system.l2.demand_mshr_miss_latency::.cpu.data   3920369000                       # number of demand (read+write) MSHR miss cycles
system.l2.demand_mshr_miss_latency::total   3959650000                       # number of demand (read+write) MSHR miss cycles
system.l2.overall_mshr_miss_latency::.cpu.inst     39281000                       # number of overall MSHR miss cycles
system.l2.overall_mshr_miss_latency::.cpu.data   3920369000                       # number of overall MSHR miss cycles
system.l2.overall_mshr_miss_latency::total   3959650000                       # number of overall MSHR miss cycles
system.l2.demand_mshr_miss_rate::.cpu.inst     0.424167                       # mshr miss rate for demand accesses
system.l2.demand_mshr_miss_rate::.cpu.data     0.364715                       # mshr miss rate for demand accesses
system.l2.demand_mshr_miss_rate::total       0.365280                       # mshr miss rate for demand accesses
system.l2.overall_mshr_miss_rate::.cpu.inst     0.424167                       # mshr miss rate for overall accesses
system.l2.overall_mshr_miss_rate::.cpu.data     0.364715                       # mshr miss rate for overall accesses
system.l2.overall_mshr_miss_rate::total      0.365280                       # mshr miss rate for overall accesses
system.l2.demand_avg_mshr_miss_latency::.cpu.inst 77172.888016                       # average overall mshr miss latency
system.l2.demand_avg_mshr_miss_latency::.cpu.data 85971.119054                       # average overall mshr miss latency
system.l2.demand_avg_mshr_miss_latency::total 85873.996964                       # average overall mshr miss latency
system.l2.overall_avg_mshr_miss_latency::.cpu.inst 77172.888016                       # average overall mshr miss latency
system.l2.overall_avg_mshr_miss_latency::.cpu.data 85971.119054                       # average overall mshr miss latency
system.l2.overall_avg_mshr_miss_latency::total 85873.996964                       # average overall mshr miss latency
system.l2.replacements                          37923                       # number of replacements
system.l2.WritebackDirty_hits::.writebacks        72349                       # number of WritebackDirty hits
system.l2.WritebackDirty_hits::total            72349                       # number of WritebackDirty hits
system.l2.WritebackDirty_accesses::.writebacks        72349                       # number of WritebackDirty accesses(hits+misses)
system.l2.WritebackDirty_accesses::total        72349                       # number of WritebackDirty accesses(hits+misses)
system.l2.WritebackClean_hits::.writebacks          755                       # number of WritebackClean hits
system.l2.WritebackClean_hits::total              755                       # number of WritebackClean hits
system.l2.WritebackClean_accesses::.writebacks          755                       # number of WritebackClean accesses(hits+misses)
system.l2.WritebackClean_accesses::total          755                       # number of WritebackClean accesses(hits+misses)
system.l2.ReadExReq_hits::.cpu.data              8987                       # number of ReadExReq hits
system.l2.ReadExReq_hits::total                  8987                       # number of ReadExReq hits
system.l2.ReadExReq_misses::.cpu.data           38812                       # number of ReadExReq misses
system.l2.ReadExReq_misses::total               38812                       # number of ReadExReq misses
system.l2.ReadExReq_miss_latency::.cpu.data   4087190000                       # number of ReadExReq miss cycles
system.l2.ReadExReq_miss_latency::total    4087190000                       # number of ReadExReq miss cycles
system.l2.ReadExReq_accesses::.cpu.data         47799                       # number of ReadExReq accesses(hits+misses)
system.l2.ReadExReq_accesses::total             47799                       # number of ReadExReq accesses(hits+misses)
system.l2.ReadExReq_miss_rate::.cpu.data     0.811984                       # miss rate for ReadExReq accesses
system.l2.ReadExReq_miss_rate::total         0.811984                       # miss rate for ReadExReq accesses
system.l2.ReadExReq_avg_miss_latency::.cpu.data 105307.379161                       # average ReadExReq miss latency
system.l2.ReadExReq_avg_miss_latency::total 105307.379161                       # average ReadExReq miss latency
system.l2.ReadExReq_mshr_misses::.cpu.data        38812                       # number of ReadExReq MSHR misses
system.l2.ReadExReq_mshr_misses::total          38812                       # number of ReadExReq MSHR misses
system.l2.ReadExReq_mshr_miss_latency::.cpu.data   3310950000                       # number of ReadExReq MSHR miss cycles
system.l2.ReadExReq_mshr_miss_latency::total   3310950000                       # number of ReadExReq MSHR miss cycles
system.l2.ReadExReq_mshr_miss_rate::.cpu.data     0.811984                       # mshr miss rate for ReadExReq accesses
system.l2.ReadExReq_mshr_miss_rate::total     0.811984                       # mshr miss rate for ReadExReq accesses
system.l2.ReadExReq_avg_mshr_miss_latency::.cpu.data 85307.379161                       # average ReadExReq mshr miss latency
system.l2.ReadExReq_avg_mshr_miss_latency::total 85307.379161                       # average ReadExReq mshr miss latency
system.l2.ReadCleanReq_hits::.cpu.inst            690                       # number of ReadCleanReq hits
system.l2.ReadCleanReq_hits::total                690                       # number of ReadCleanReq hits
system.l2.ReadCleanReq_misses::.cpu.inst          510                       # number of ReadCleanReq misses
system.l2.ReadCleanReq_misses::total              510                       # number of ReadCleanReq misses
system.l2.ReadCleanReq_miss_latency::.cpu.inst     49541000                       # number of ReadCleanReq miss cycles
system.l2.ReadCleanReq_miss_latency::total     49541000                       # number of ReadCleanReq miss cycles
system.l2.ReadCleanReq_accesses::.cpu.inst         1200                       # number of ReadCleanReq accesses(hits+misses)
system.l2.ReadCleanReq_accesses::total           1200                       # number of ReadCleanReq accesses(hits+misses)
system.l2.ReadCleanReq_miss_rate::.cpu.inst     0.425000                       # miss rate for ReadCleanReq accesses
system.l2.ReadCleanReq_miss_rate::total      0.425000                       # miss rate for ReadCleanReq accesses
system.l2.ReadCleanReq_avg_miss_latency::.cpu.inst 97139.215686                       # average ReadCleanReq miss latency
system.l2.ReadCleanReq_avg_miss_latency::total 97139.215686                       # average ReadCleanReq miss latency
system.l2.ReadCleanReq_mshr_hits::.cpu.inst            1                       # number of ReadCleanReq MSHR hits
system.l2.ReadCleanReq_mshr_hits::total             1                       # number of ReadCleanReq MSHR hits
system.l2.ReadCleanReq_mshr_misses::.cpu.inst          509                       # number of ReadCleanReq MSHR misses
system.l2.ReadCleanReq_mshr_misses::total          509                       # number of ReadCleanReq MSHR misses
system.l2.ReadCleanReq_mshr_miss_latency::.cpu.inst     39281000                       # number of ReadCleanReq MSHR miss cycles
system.l2.ReadCleanReq_mshr_miss_latency::total     39281000                       # number of ReadCleanReq MSHR miss cycles
system.l2.ReadCleanReq_mshr_miss_rate::.cpu.inst     0.424167                       # mshr miss rate for ReadCleanReq accesses
system.l2.ReadCleanReq_mshr_miss_rate::total     0.424167                       # mshr miss rate for ReadCleanReq accesses
system.l2.ReadCleanReq_avg_mshr_miss_latency::.cpu.inst 77172.888016                       # average ReadCleanReq mshr miss latency
system.l2.ReadCleanReq_avg_mshr_miss_latency::total 77172.888016                       # average ReadCleanReq mshr miss latency
system.l2.ReadSharedReq_hits::.cpu.data         70439                       # number of ReadSharedReq hits
system.l2.ReadSharedReq_hits::total             70439                       # number of ReadSharedReq hits
system.l2.ReadSharedReq_misses::.cpu.data         6794                       # number of ReadSharedReq misses
system.l2.ReadSharedReq_misses::total            6794                       # number of ReadSharedReq misses
system.l2.ReadSharedReq_miss_latency::.cpu.data    745607000                       # number of ReadSharedReq miss cycles
system.l2.ReadSharedReq_miss_latency::total    745607000                       # number of ReadSharedReq miss cycles
system.l2.ReadSharedReq_accesses::.cpu.data        77233                       # number of ReadSharedReq accesses(hits+misses)
system.l2.ReadSharedReq_accesses::total         77233                       # number of ReadSharedReq accesses(hits+misses)
system.l2.ReadSharedReq_miss_rate::.cpu.data     0.087968                       # miss rate for ReadSharedReq accesses
system.l2.ReadSharedReq_miss_rate::total     0.087968                       # miss rate for ReadSharedReq accesses
system.l2.ReadSharedReq_avg_miss_latency::.cpu.data 109744.921990                       # average ReadSharedReq miss latency
system.l2.ReadSharedReq_avg_miss_latency::total 109744.921990                       # average ReadSharedReq miss latency
system.l2.ReadSharedReq_mshr_hits::.cpu.data            5                       # number of ReadSharedReq MSHR hits
system.l2.ReadSharedReq_mshr_hits::total            5                       # number of ReadSharedReq MSHR hits
system.l2.ReadSharedReq_mshr_misses::.cpu.data         6789                       # number of ReadSharedReq MSHR misses
system.l2.ReadSharedReq_mshr_misses::total         6789                       # number of ReadSharedReq MSHR misses
system.l2.ReadSharedReq_mshr_miss_latency::.cpu.data    609419000                       # number of ReadSharedReq MSHR miss cycles
system.l2.ReadSharedReq_mshr_miss_latency::total    609419000                       # number of ReadSharedReq MSHR miss cycles
system.l2.ReadSharedReq_mshr_miss_rate::.cpu.data     0.087903                       # mshr miss rate for ReadSharedReq accesses
system.l2.ReadSharedReq_mshr_miss_rate::total     0.087903                       # mshr miss rate for ReadSharedReq accesses
system.l2.ReadSharedReq_avg_mshr_miss_latency::.cpu.data 89765.650317                       # average ReadSharedReq mshr miss latency
system.l2.ReadSharedReq_avg_mshr_miss_latency::total 89765.650317                       # average ReadSharedReq mshr miss latency
system.l2.power_state.pwrStateResidencyTicks::UNDEFINED 115526260000                       # Cumulative time (in ticks) in various power states
system.l2.tags.tagsinuse                  8006.502411                       # Cycle average of tags in use
system.l2.tags.total_refs                      248981                       # Total number of references to valid blocks.
system.l2.tags.sampled_refs                     46115                       # Sample count of references to valid blocks.
system.l2.tags.avg_refs                      5.399133                       # Average number of references to valid blocks.
system.l2.tags.warmup_cycle                     87000                       # Cycle when the warmup percentage was hit.
system.l2.tags.occ_blocks::.writebacks       3.692798                       # Average occupied blocks per requestor
system.l2.tags.occ_blocks::.cpu.inst        35.622206                       # Average occupied blocks per requestor
system.l2.tags.occ_blocks::.cpu.data      7967.187407                       # Average occupied blocks per requestor
system.l2.tags.occ_percent::.writebacks      0.000451                       # Average percentage of cache occupancy
system.l2.tags.occ_percent::.cpu.inst        0.004348                       # Average percentage of cache occupancy
system.l2.tags.occ_percent::.cpu.data        0.972557                       # Average percentage of cache occupancy
system.l2.tags.occ_percent::total            0.977356                       # Average percentage of cache occupancy
system.l2.tags.occ_task_id_blocks::1024          8192                       # Occupied blocks per task id
system.l2.tags.age_task_id_blocks_1024::0            2                       # Occupied blocks per task id
system.l2.tags.age_task_id_blocks_1024::1           17                       # Occupied blocks per task id
system.l2.tags.age_task_id_blocks_1024::2          234                       # Occupied blocks per task id
system.l2.tags.age_task_id_blocks_1024::3         2529                       # Occupied blocks per task id
system.l2.tags.age_task_id_blocks_1024::4         5410                       # Occupied blocks per task id
system.l2.tags.occ_task_id_percent::1024            1                       # Percentage of cache occupancy per task id
system.l2.tags.tag_accesses                   4029907                       # Number of tag accesses
system.l2.tags.data_accesses                  4029907                       # Number of data accesses
system.l2.tags.power_state.pwrStateResidencyTicks::UNDEFINED 115526260000                       # Cumulative time (in ticks) in various power states
system.mem_ctrls.avgPriority_.writebacks::samples     37348.00                       # Average QoS priority value for accepted requests
system.mem_ctrls.avgPriority_.cpu.inst::samples       509.00                       # Average QoS priority value for accepted requests
system.mem_ctrls.avgPriority_.cpu.data::samples     45572.00                       # Average QoS priority value for accepted requests
system.mem_ctrls.priorityMinLatency      0.000000018750                       # per QoS priority minimum request to response latency (s)
system.mem_ctrls.priorityMaxLatency      0.000971732500                       # per QoS priority maximum request to response latency (s)
system.mem_ctrls.numReadWriteTurnArounds         2091                       # Number of turnarounds from READ to WRITE
system.mem_ctrls.numWriteReadTurnArounds         2091                       # Number of turnarounds from WRITE to READ
system.mem_ctrls.numStayReadState              158705                       # Number of times bus staying in READ state
system.mem_ctrls.numStayWriteState              35253                       # Number of times bus staying in WRITE state
system.mem_ctrls.readReqs                       46110                       # Number of read requests accepted
system.mem_ctrls.writeReqs                      37348                       # Number of write requests accepted
system.mem_ctrls.readBursts                     46110                       # Number of controller read bursts, including those serviced by the write queue
system.mem_ctrls.writeBursts                    37348                       # Number of controller write bursts, including those merged in the write queue
system.mem_ctrls.servicedByWrQ                     29                       # Number of controller read bursts serviced by the write queue
system.mem_ctrls.mergedWrBursts                     0                       # Number of controller write bursts merged with an existing one
system.mem_ctrls.neitherReadNorWriteReqs            0                       # Number of requests that are neither read nor write
system.mem_ctrls.avgRdQLen                       1.05                       # Average read queue length when enqueuing
system.mem_ctrls.avgWrQLen                      23.38                       # Average write queue length when enqueuing
system.mem_ctrls.numRdRetry                         0                       # Number of times read queue was full causing retry
system.mem_ctrls.numWrRetry                         0                       # Number of times write queue was full causing retry
system.mem_ctrls.readPktSize::0                     0                       # Read request sizes (log2)
system.mem_ctrls.readPktSize::1                     0                       # Read request sizes (log2)
system.mem_ctrls.readPktSize::2                     0                       # Read request sizes (log2)
system.mem_ctrls.readPktSize::3                     0                       # Read request sizes (log2)
[...]
system.mem_ctrls.dram.bw_write::.writebacks     20690292                       # Write bandwidth from this memory (bytes/s)
system.mem_ctrls.dram.bw_write::total        20690292                       # Write bandwidth from this memory (bytes/s)
system.mem_ctrls.dram.bw_total::.writebacks     20690292                       # Total bandwidth to/from this memory (bytes/s)
system.mem_ctrls.dram.bw_total::.cpu.inst       281979                       # Total bandwidth to/from this memory (bytes/s)
system.mem_ctrls.dram.bw_total::.cpu.data     25262343                       # Total bandwidth to/from this memory (bytes/s)
system.mem_ctrls.dram.bw_total::total        46234614                       # Total bandwidth to/from this memory (bytes/s)
system.mem_ctrls.dram.readBursts                46081                       # Number of DRAM read bursts
system.mem_ctrls.dram.writeBursts               37319                       # Number of DRAM write bursts
system.mem_ctrls.dram.perBankRdBursts::0         2878                       # Per bank write bursts
system.mem_ctrls.dram.perBankRdBursts::1         2862                       # Per bank write bursts
system.mem_ctrls.dram.perBankRdBursts::2         2849                       # Per bank write bursts
system.mem_ctrls.dram.perBankRdBursts::3         2920                       # Per bank write bursts
system.mem_ctrls.dram.perBankRdBursts::4         2880                       # Per bank write bursts
system.mem_ctrls.dram.perBankRdBursts::5         2758                       # Per bank write bursts
system.mem_ctrls.dram.perBankRdBursts::6         2852                       # Per bank write bursts
system.mem_ctrls.dram.perBankRdBursts::7         2947                       # Per bank write bursts
system.mem_ctrls.dram.perBankRdBursts::8         2855                       # Per bank write bursts
system.mem_ctrls.dram.perBankRdBursts::9         2892                       # Per bank write bursts
system.mem_ctrls.dram.perBankRdBursts::10         2922                       # Per bank write bursts
system.mem_ctrls.dram.perBankRdBursts::11         2869                       # Per bank write bursts
system.mem_ctrls.dram.perBankRdBursts::12         2945                       # Per bank write bursts
system.mem_ctrls.dram.perBankRdBursts::13         2817                       # Per bank write bursts
system.mem_ctrls.dram.perBankRdBursts::14         2953                       # Per bank write bursts
system.mem_ctrls.dram.perBankRdBursts::15         2882                       # Per bank write bursts
system.mem_ctrls.dram.perBankWrBursts::0         2285                       # Per bank write bursts
system.mem_ctrls.dram.perBankWrBursts::1         2267                       # Per bank write bursts
system.mem_ctrls.dram.perBankWrBursts::2         2295                       # Per bank write bursts
system.mem_ctrls.dram.perBankWrBursts::3         2266                       # Per bank write bursts
system.mem_ctrls.dram.perBankWrBursts::4         2355                       # Per bank write bursts
system.mem_ctrls.dram.perBankWrBursts::5         2313                       # Per bank write bursts
system.mem_ctrls.dram.perBankWrBursts::6         2396                       # Per bank write bursts
system.mem_ctrls.dram.perBankWrBursts::7         2430                       # Per bank write bursts
system.mem_ctrls.dram.perBankWrBursts::8         2366                       # Per bank write bursts
system.mem_ctrls.dram.perBankWrBursts::9         2330                       # Per bank write bursts
system.mem_ctrls.dram.perBankWrBursts::10         2370                       # Per bank write bursts
system.mem_ctrls.dram.perBankWrBursts::11         2327                       # Per bank write bursts
system.mem_ctrls.dram.perBankWrBursts::12         2369                       # Per bank write bursts
system.mem_ctrls.dram.perBankWrBursts::13         2271                       # Per bank write bursts
system.mem_ctrls.dram.perBankWrBursts::14         2353                       # Per bank write bursts
system.mem_ctrls.dram.perBankWrBursts::15         2326                       # Per bank write bursts
system.mem_ctrls.dram.totQLat               726545750                       # Total ticks spent queuing
system.mem_ctrls.dram.totBusLat             230405000                       # Total ticks spent in databus transfers
system.mem_ctrls.dram.totMemAccLat         1590564500                       # Total ticks spent from burst creation until serviced by the DRAM
system.mem_ctrls.dram.avgQLat                15766.71                       # Average queueing delay per DRAM burst
system.mem_ctrls.dram.avgBusLat               5000.00                       # Average bus latency per DRAM burst
system.mem_ctrls.dram.avgMemAccLat           34516.71                       # Average memory access latency per DRAM burst
system.mem_ctrls.dram.readRowHits               21170                       # Number of row buffer hits during reads
system.mem_ctrls.dram.writeRowHits              24280                       # Number of row buffer hits during writes
system.mem_ctrls.dram.readRowHitRate            45.94                       # Row buffer hit rate for reads
system.mem_ctrls.dram.writeRowHitRate           65.06                       # Row buffer hit rate for writes
system.mem_ctrls.dram.bytesPerActivate::samples        37949                       # Bytes accessed per row activation
system.mem_ctrls.dram.bytesPerActivate::mean   140.650241                       # Bytes accessed per row activation
system.mem_ctrls.dram.bytesPerActivate::gmean   105.355886                       # Bytes accessed per row activation
system.mem_ctrls.dram.bytesPerActivate::stdev   144.729204                       # Bytes accessed per row activation
system.mem_ctrls.dram.bytesPerActivate::0-127        21160     55.76%     55.76% # Bytes accessed per row activation
system.mem_ctrls.dram.bytesPerActivate::128-255        11034     29.08%     84.83% # Bytes accessed per row activation
system.mem_ctrls.dram.bytesPerActivate::256-383         2626      6.92%     91.75% # Bytes accessed per row activation
system.mem_ctrls.dram.bytesPerActivate::384-511         1616      4.26%     96.01% # Bytes accessed per row activation
system.mem_ctrls.dram.bytesPerActivate::512-639          781      2.06%     98.07% # Bytes accessed per row activation
system.mem_ctrls.dram.bytesPerActivate::640-767          259      0.68%     98.75% # Bytes accessed per row activation
system.mem_ctrls.dram.bytesPerActivate::768-895          153      0.40%     99.16% # Bytes accessed per row activation
system.mem_ctrls.dram.bytesPerActivate::896-1023          132      0.35%     99.50% # Bytes accessed per row activation
system.mem_ctrls.dram.bytesPerActivate::1024-1151          188      0.50%    100.00% # Bytes accessed per row activation
system.mem_ctrls.dram.bytesPerActivate::total        37949                       # Bytes accessed per row activation
system.mem_ctrls.dram.bytesRead               2949184                       # Total number of bytes read from DRAM
system.mem_ctrls.dram.bytesWritten            2388416                       # Total number of bytes written to DRAM
system.mem_ctrls.dram.avgRdBW               25.528257                       # Average DRAM read bandwidth in MiBytes/s
system.mem_ctrls.dram.avgWrBW               20.674226                       # Average DRAM write bandwidth in MiBytes/s
system.mem_ctrls.dram.peakBW                 12800.00                       # Theoretical peak bandwidth in MiByte/s
system.mem_ctrls.dram.busUtil                    0.36                       # Data bus utilization in percentage
system.mem_ctrls.dram.busUtilRead                0.20                       # Data bus utilization in percentage for reads
system.mem_ctrls.dram.busUtilWrite               0.16                       # Data bus utilization in percentage for writes
system.mem_ctrls.dram.pageHitRate               54.50                       # Row buffer hit rate, read and write combined
system.mem_ctrls.dram.power_state.pwrStateResidencyTicks::UNDEFINED 115526260000                       # Cumulative time (in ticks) in various power states
system.mem_ctrls.dram.rank0.actEnergy       135888480                       # Energy for activate commands per rank (pJ)
system.mem_ctrls.dram.rank0.preEnergy        72222645                       # Energy for precharge commands per rank (pJ)
system.mem_ctrls.dram.rank0.readEnergy      163834440                       # Energy for read commands per rank (pJ)
system.mem_ctrls.dram.rank0.writeEnergy      97128540                       # Energy for write commands per rank (pJ)
system.mem_ctrls.dram.rank0.refreshEnergy 9119413680.000002                       # Energy for refresh commands per rank (pJ)
system.mem_ctrls.dram.rank0.actBackEnergy  25190882100                       # Energy for active background per rank (pJ)
system.mem_ctrls.dram.rank0.preBackEnergy  23148709440                       # Energy for precharge background per rank (pJ)
system.mem_ctrls.dram.rank0.actPowerDownEnergy            0                       # Energy for active power-down per rank (pJ)
system.mem_ctrls.dram.rank0.prePowerDownEnergy            0                       # Energy for precharge power-down per rank (pJ)
system.mem_ctrls.dram.rank0.selfRefreshEnergy            0                       # Energy for self refresh per rank (pJ)
system.mem_ctrls.dram.rank0.totalEnergy   57928079325                       # Total energy per rank (pJ)
system.mem_ctrls.dram.rank0.averagePower   501.427808                       # Core power per rank (mW)
system.mem_ctrls.dram.rank0.totalIdleTime            0                       # Total Idle time Per DRAM Rank
system.mem_ctrls.dram.rank0.pwrStateTime::IDLE  59939201500                       # Time in different power states
system.mem_ctrls.dram.rank0.pwrStateTime::REF   3857620000                       # Time in different power states
system.mem_ctrls.dram.rank0.pwrStateTime::SREF            0                       # Time in different power states
system.mem_ctrls.dram.rank0.pwrStateTime::PRE_PDN            0                       # Time in different power states
system.mem_ctrls.dram.rank0.pwrStateTime::ACT  51729438500                       # Time in different power states
system.mem_ctrls.dram.rank0.pwrStateTime::ACT_PDN            0                       # Time in different power states
system.mem_ctrls.dram.rank1.actEnergy       135074520                       # Energy for activate commands per rank (pJ)
system.mem_ctrls.dram.rank1.preEnergy        71793810                       # Energy for precharge commands per rank (pJ)
system.mem_ctrls.dram.rank1.readEnergy      165183900                       # Energy for read commands per rank (pJ)
system.mem_ctrls.dram.rank1.writeEnergy      97676640                       # Energy for write commands per rank (pJ)
system.mem_ctrls.dram.rank1.refreshEnergy 9119413680.000002                       # Energy for refresh commands per rank (pJ)
system.mem_ctrls.dram.rank1.actBackEnergy  25320125610                       # Energy for active background per rank (pJ)
system.mem_ctrls.dram.rank1.preBackEnergy  23039872800                       # Energy for precharge background per rank (pJ)
system.mem_ctrls.dram.rank1.actPowerDownEnergy            0                       # Energy for active power-down per rank (pJ)
system.mem_ctrls.dram.rank1.prePowerDownEnergy            0                       # Energy for precharge power-down per rank (pJ)
system.mem_ctrls.dram.rank1.selfRefreshEnergy            0                       # Energy for self refresh per rank (pJ)
system.mem_ctrls.dram.rank1.totalEnergy   57949140960                       # Total energy per rank (pJ)
system.mem_ctrls.dram.rank1.averagePower   501.610118                       # Core power per rank (mW)
system.mem_ctrls.dram.rank1.totalIdleTime            0                       # Total Idle time Per DRAM Rank
system.mem_ctrls.dram.rank1.pwrStateTime::IDLE  59654710750                       # Time in different power states
system.mem_ctrls.dram.rank1.pwrStateTime::REF   3857620000                       # Time in different power states
system.mem_ctrls.dram.rank1.pwrStateTime::SREF            0                       # Time in different power states
system.mem_ctrls.dram.rank1.pwrStateTime::PRE_PDN            0                       # Time in different power states
system.mem_ctrls.dram.rank1.pwrStateTime::ACT  52013929250                       # Time in different power states
system.mem_ctrls.dram.rank1.pwrStateTime::ACT_PDN            0                       # Time in different power states
system.mem_ctrls.power_state.pwrStateResidencyTicks::UNDEFINED 115526260000                       # Cumulative time (in ticks) in various power states
system.membus.trans_dist::ReadResp               7298                       # Transaction distribution
system.membus.trans_dist::WritebackDirty        37348                       # Transaction distribution
system.membus.trans_dist::CleanEvict              136                       # Transaction distribution
system.membus.trans_dist::ReadExReq             38812                       # Transaction distribution
system.membus.trans_dist::ReadExResp            38812                       # Transaction distribution
system.membus.trans_dist::ReadSharedReq          7298                       # Transaction distribution
system.membus.pkt_count_system.l2.mem_side_port::system.mem_ctrls.port       129704                       # Packet count per connected requestor and responder (bytes)
system.membus.pkt_count::total                 129704                       # Packet count per connected requestor and responder (bytes)
system.membus.pkt_size_system.l2.mem_side_port::system.mem_ctrls.port      5341312                       # Cumulative packet size per connected requestor and responder (bytes)
system.membus.pkt_size::total                 5341312                       # Cumulative packet size per connected requestor and responder (bytes)
system.membus.snoops                                0                       # Total snoops (count)
system.membus.snoopTraffic                          0                       # Total snoop traffic (bytes)
system.membus.snoop_fanout::samples             46110                       # Request fanout histogram
system.membus.snoop_fanout::mean                    0                       # Request fanout histogram
system.membus.snoop_fanout::stdev                   0                       # Request fanout histogram
system.membus.snoop_fanout::underflows              0      0.00%      0.00% # Request fanout histogram
system.membus.snoop_fanout::0                   46110    100.00%    100.00% # Request fanout histogram
system.membus.snoop_fanout::1                       0      0.00%    100.00% # Request fanout histogram
system.membus.snoop_fanout::overflows               0      0.00%    100.00% # Request fanout histogram
system.membus.snoop_fanout::min_value               0                       # Request fanout histogram
system.membus.snoop_fanout::max_value               0                       # Request fanout histogram
system.membus.snoop_fanout::total               46110                       # Request fanout histogram
system.membus.power_state.pwrStateResidencyTicks::UNDEFINED 115526260000                       # Cumulative time (in ticks) in various power states
system.membus.reqLayer0.occupancy           232986000                       # Layer occupancy (ticks)
system.membus.reqLayer0.utilization               0.2                       # Layer utilization (%)
system.membus.respLayer1.occupancy          248298250                       # Layer occupancy (ticks)
system.membus.respLayer1.utilization              0.2                       # Layer utilization (%)
system.tol2bus.trans_dist::ReadResp             78433                       # Transaction distribution
system.tol2bus.trans_dist::WritebackDirty       109698                       # Transaction distribution
system.tol2bus.trans_dist::WritebackClean          758                       # Transaction distribution
system.tol2bus.trans_dist::CleanEvict           52744                       # Transaction distribution
system.tol2bus.trans_dist::ReadExReq            47799                       # Transaction distribution
system.tol2bus.trans_dist::ReadExResp           47798                       # Transaction distribution
system.tol2bus.trans_dist::ReadCleanReq          1200                       # Transaction distribution
system.tol2bus.trans_dist::ReadSharedReq        77233                       # Transaction distribution
system.tol2bus.pkt_count_system.cpu.icache.mem_side_port::system.l2.cpu_side_port         3158                       # Packet count per connected requestor and responder (bytes)
system.tol2bus.pkt_count_system.cpu.dcache.mem_side_port::system.l2.cpu_side_port       374582                       # Packet count per connected requestor and responder (bytes)
system.tol2bus.pkt_count::total                377740                       # Packet count per connected requestor and responder (bytes)
system.tol2bus.pkt_size_system.cpu.icache.mem_side_port::system.l2.cpu_side_port       125312                       # Cumulative packet size per connected requestor and responder (bytes)
system.tol2bus.pkt_size_system.cpu.dcache.mem_side_port::system.l2.cpu_side_port     12632320                       # Cumulative packet size per connected requestor and responder (bytes)
system.tol2bus.pkt_size::total               12757632                       # Cumulative packet size per connected requestor and responder (bytes)
system.tol2bus.snoops                           37923                       # Total snoops (count)
system.tol2bus.snoopTraffic                   2390336                       # Total snoop traffic (bytes)
system.tol2bus.snoop_fanout::samples           164155                       # Request fanout histogram
system.tol2bus.snoop_fanout::mean            0.018056                       # Request fanout histogram
system.tol2bus.snoop_fanout::stdev           0.133155                       # Request fanout histogram
system.tol2bus.snoop_fanout::underflows             0      0.00%      0.00% # Request fanout histogram
system.tol2bus.snoop_fanout::0                 161191     98.19%     98.19% # Request fanout histogram
system.tol2bus.snoop_fanout::1                   2964      1.81%    100.00% # Request fanout histogram
system.tol2bus.snoop_fanout::2                      0      0.00%    100.00% # Request fanout histogram
system.tol2bus.snoop_fanout::overflows              0      0.00%    100.00% # Request fanout histogram
system.tol2bus.snoop_fanout::min_value              0                       # Request fanout histogram
system.tol2bus.snoop_fanout::max_value              1                       # Request fanout histogram
system.tol2bus.snoop_fanout::total             164155                       # Request fanout histogram
system.tol2bus.power_state.pwrStateResidencyTicks::UNDEFINED 115526260000                       # Cumulative time (in ticks) in various power states
system.tol2bus.reqLayer0.occupancy          397723000                       # Layer occupancy (ticks)
system.tol2bus.reqLayer0.utilization              0.3                       # Layer utilization (%)
system.tol2bus.respLayer0.occupancy           3600999                       # Layer occupancy (ticks)
system.tol2bus.respLayer0.utilization             0.0                       # Layer utilization (%)
system.tol2bus.respLayer1.occupancy         375097995                       # Layer occupancy (ticks)
system.tol2bus.respLayer1.utilization             0.3                       # Layer utilization (%)
system.voltage_domain.voltage                       1                       # Voltage in Volts

---------- End Simulation Statistics   ----------
