
---------- Begin Simulation Statistics ----------
final_tick                               126085401000                       # Number of ticks from beginning of simulation (restored from checkpoints and never reset)
host_inst_rate                                 403158                       # Simulator instruction rate (inst/s)
host_mem_usage                                 665552                       # Number of bytes of host memory used
host_op_rate                                   407604                       # Simulator op (including micro ops) rate (op/s)
host_seconds                                   248.04                       # Real time elapsed on the host
host_tick_rate                              508322998                       # Simulator tick rate (ticks/s)
sim_freq                                 1000000000000                       # Frequency of simulated ticks
sim_insts                                   100000000                       # Number of instructions simulated
sim_ops                                     101102842                       # Number of ops (including micro ops) simulated
sim_seconds                                  0.126085                       # Number of seconds simulated
sim_ticks                                126085401000                       # Number of ticks simulated
system.cpu.committedInsts                   100000000                       # Number of instructions committed
system.cpu.committedOps                     101102842                       # Number of ops (including micro ops) committed
system.cpu.cpi                               1.260854                       # CPI: cycles per instruction
system.cpu.discardedOps                        974693                       # Number of ops (including micro ops) which were discarded before commit
system.cpu.idleCycles                         9475278                       # Total number of cycles that the object has spent stopped
system.cpu.ipc                               0.793113                       # IPC: instructions per cycle
system.cpu.numCycles                        126085401                       # number of cpu cycles simulated
system.cpu.numFetchSuspends                         0                       # Number of times Execute suspended instruction fetching
system.cpu.numWorkItemsCompleted                    0                       # number of work items this cpu completed
system.cpu.numWorkItemsStarted                      0                       # number of work items this cpu started
system.cpu.op_class_0::No_OpClass                   0      0.00%      0.00% # Class of committed instruction
system.cpu.op_class_0::IntAlu                55116018     54.51%     54.51% # Class of committed instruction
system.cpu.op_class_0::IntMult                 167845      0.17%     54.68% # Class of committed instruction
system.cpu.op_class_0::IntDiv                       0      0.00%     54.68% # Class of committed instruction
system.cpu.op_class_0::FloatAdd                     0      0.00%     54.68% # Class of committed instruction
system.cpu.op_class_0::FloatCmp                     0      0.00%     54.68% # Class of committed instruction
system.cpu.op_class_0::FloatCvt                     0      0.00%     54.68% # Class of committed instruction
system.cpu.op_class_0::FloatMult                    0      0.00%     54.68% # Class of committed instruction
system.cpu.op_class_0::FloatMultAcc                 0      0.00%     54.68% # Class of committed instruction
system.cpu.op_class_0::FloatDiv                     0      0.00%     54.68% # Class of committed instruction
system.cpu.op_class_0::FloatMisc                    0      0.00%     54.68% # Class of committed instruction
system.cpu.op_class_0::FloatSqrt                    0      0.00%     54.68% # Class of committed instruction
system.cpu.op_class_0::SimdAdd                    376      0.00%     54.68% # Class of committed instruction
system.cpu.op_class_0::SimdAddAcc                   0      0.00%     54.68% # Class of committed instruction
system.cpu.op_class_0::SimdAlu                    466      0.00%     54.68% # Class of committed instruction
system.cpu.op_class_0::SimdCmp                    378      0.00%     54.68% # Class of committed instruction
system.cpu.op_class_0::SimdCvt                      0      0.00%     54.68% # Class of committed instruction
system.cpu.op_class_0::SimdMisc                    53      0.00%     54.68% # Class of committed instruction
system.cpu.op_class_0::SimdMult                     0      0.00%     54.68% # Class of committed instruction
system.cpu.op_class_0::SimdMultAcc                  0      0.00%     54.68% # Class of committed instruction
system.cpu.op_class_0::SimdShift                    0      0.00%     54.68% # Class of committed instruction
system.cpu.op_class_0::SimdShiftAcc                 0      0.00%     54.68% # Class of committed instruction
system.cpu.op_class_0::SimdDiv                      0      0.00%     54.68% # Class of committed instruction
system.cpu.op_class_0::SimdSqrt                     0      0.00%     54.68% # Class of committed instruction
system.cpu.op_class_0::SimdFloatAdd            267609      0.26%     54.95% # Class of committed instruction
system.cpu.op_class_0::SimdFloatAlu                 0      0.00%     54.95% # Class of committed instruction
system.cpu.op_class_0::SimdFloatCmp            259630      0.26%     55.20% # Class of committed instruction
system.cpu.op_class_0::SimdFloatCvt            161456      0.16%     55.36% # Class of committed instruction
system.cpu.op_class_0::SimdFloatDiv             54308      0.05%     55.42% # Class of committed instruction
system.cpu.op_class_0::SimdFloatMisc           483616      0.48%     55.90% # Class of committed instruction
system.cpu.op_class_0::SimdFloatMult            33524      0.03%     55.93% # Class of committed instruction
system.cpu.op_class_0::SimdFloatMultAcc         11115      0.01%     55.94% # Class of committed instruction
system.cpu.op_class_0::SimdFloatSqrt                0      0.00%     55.94% # Class of committed instruction
system.cpu.op_class_0::SimdReduceAdd                0      0.00%     55.94% # Class of committed instruction
system.cpu.op_class_0::SimdReduceAlu                0      0.00%     55.94% # Class of committed instruction
system.cpu.op_class_0::SimdReduceCmp                0      0.00%     55.94% # Class of committed instruction
system.cpu.op_class_0::SimdFloatReduceAdd            0      0.00%     55.94% # Class of committed instruction
system.cpu.op_class_0::SimdFloatReduceCmp            0      0.00%     55.94% # Class of committed instruction
system.cpu.op_class_0::SimdAes                      0      0.00%     55.94% # Class of committed instruction
system.cpu.op_class_0::SimdAesMix                   0      0.00%     55.94% # Class of committed instruction
system.cpu.op_class_0::SimdSha1Hash                 0      0.00%     55.94% # Class of committed instruction
system.cpu.op_class_0::SimdSha1Hash2                0      0.00%     55.94% # Class of committed instruction
system.cpu.op_class_0::SimdSha256Hash               0      0.00%     55.94% # Class of committed instruction
system.cpu.op_class_0::SimdSha256Hash2              0      0.00%     55.94% # Class of committed instruction
system.cpu.op_class_0::SimdShaSigma2                0      0.00%     55.94% # Class of committed instruction
system.cpu.op_class_0::SimdShaSigma3                0      0.00%     55.94% # Class of committed instruction
system.cpu.op_class_0::SimdPredAlu                  0      0.00%     55.94% # Class of committed instruction
system.cpu.op_class_0::MemRead               38167367     37.75%     93.69% # Class of committed instruction
system.cpu.op_class_0::MemWrite               6379081      6.31%    100.00% # Class of committed instruction
system.cpu.op_class_0::FloatMemRead                 0      0.00%    100.00% # Class of committed instruction
system.cpu.op_class_0::FloatMemWrite                0      0.00%    100.00% # Class of committed instruction
system.cpu.op_class_0::IprAccess                    0      0.00%    100.00% # Class of committed instruction
system.cpu.op_class_0::InstPrefetch                 0      0.00%    100.00% # Class of committed instruction
system.cpu.op_class_0::total                101102842                       # Class of committed instruction
system.cpu.tickCycles                       116610123                       # Number of cycles that the object actually ticked
system.cpu.workload.numSyscalls                    32                       # Number of system calls
system.membus.snoop_filter.hit_multi_requests            0                       # Number of requests hitting in the snoop filter with multiple (>1) holders of the requested data.
system.membus.snoop_filter.hit_multi_snoops            0                       # Number of snoops hitting in the snoop filter with multiple (>1) holders of the requested data.
system.membus.snoop_filter.hit_single_requests           76                       # Number of requests hitting in the snoop filter with a single holder of the requested data.
system.membus.snoop_filter.hit_single_snoops            0                       # Number of snoops hitting in the snoop filter with a single holder of the requested data.
system.membus.snoop_filter.tot_requests          5571                       # Total number of requests made to the snoop filter.
system.membus.snoop_filter.tot_snoops               0                       # Total number of snoops made to the snoop filter.
system.tol2bus.snoop_filter.hit_multi_requests         1559                       # Number of requests hitting in the snoop filter with multiple (>1) holders of the requested data.
system.tol2bus.snoop_filter.hit_multi_snoops            0                       # Number of snoops hitting in the snoop filter with multiple (>1) holders of the requested data.
system.tol2bus.snoop_filter.hit_single_requests       308875                       # Number of requests hitting in the snoop filter with a single holder of the requested data.
system.tol2bus.snoop_filter.hit_single_snoops          190                       # Number of snoops hitting in the snoop filter with a single holder of the requested data.
system.tol2bus.snoop_filter.tot_requests       619228                       # Total number of requests made to the snoop filter.
system.tol2bus.snoop_filter.tot_snoops            190                       # Total number of snoops made to the snoop filter.
system.clk_domain.clock                          1000                       # Clock period in ticks
system.cpu.branchPred.lookups                 6503539                       # Number of BP lookups
system.cpu.branchPred.condPredicted           5095164                       # Number of conditional branches predicted
system.cpu.branchPred.condIncorrect            349111                       # Number of conditional branches incorrect
system.cpu.branchPred.BTBLookups              4085078                       # Number of BTB lookups
system.cpu.branchPred.BTBHits                 4077722                       # Number of BTB hits
system.cpu.branchPred.BTBHitPct             99.819930                       # BTB Hit Percentage
system.cpu.branchPred.RASUsed                  312657                       # Number of times the RAS was used to get a target.
system.cpu.branchPred.RASIncorrect                  4                       # Number of incorrect RAS predictions.
system.cpu.branchPred.indirectLookups          675682                       # Number of indirect predictor lookups.
system.cpu.branchPred.indirectHits             102891                       # Number of indirect target hits.
system.cpu.branchPred.indirectMisses           572791                       # Number of indirect misses.
system.cpu.branchPred.indirectMispredicted        37439                       # Number of mispredicted indirect branches.
system.cpu.dcache.demand_hits::.cpu.data     43572384                       # number of demand (read+write) hits
system.cpu.dcache.demand_hits::total         43572384                       # number of demand (read+write) hits
system.cpu.dcache.overall_hits::.cpu.data     43580921                       # number of overall hits
system.cpu.dcache.overall_hits::total        43580921                       # number of overall hits
system.cpu.dcache.demand_misses::.cpu.data       321512                       # number of demand (read+write) misses
system.cpu.dcache.demand_misses::total         321512                       # number of demand (read+write) misses
system.cpu.dcache.overall_misses::.cpu.data       321724                       # number of overall misses
system.cpu.dcache.overall_misses::total        321724                       # number of overall misses
system.cpu.dcache.demand_miss_latency::.cpu.data  11089611000                       # number of demand (read+write) miss cycles
system.cpu.dcache.demand_miss_latency::total  11089611000                       # number of demand (read+write) miss cycles
system.cpu.dcache.overall_miss_latency::.cpu.data  11089611000                       # number of overall miss cycles
system.cpu.dcache.overall_miss_latency::total  11089611000                       # number of overall miss cycles
system.cpu.dcache.demand_accesses::.cpu.data     43893896                       # number of demand (read+write) accesses
system.cpu.dcache.demand_accesses::total     43893896                       # number of demand (read+write) accesses
system.cpu.dcache.overall_accesses::.cpu.data     43902645                       # number of overall (read+write) accesses
system.cpu.dcache.overall_accesses::total     43902645                       # number of overall (read+write) accesses
system.cpu.dcache.demand_miss_rate::.cpu.data     0.007325                       # miss rate for demand accesses
system.cpu.dcache.demand_miss_rate::total     0.007325                       # miss rate for demand accesses
system.cpu.dcache.overall_miss_rate::.cpu.data     0.007328                       # miss rate for overall accesses
system.cpu.dcache.overall_miss_rate::total     0.007328                       # miss rate for overall accesses
system.cpu.dcache.demand_avg_miss_latency::.cpu.data 34492.059394                       # average overall miss latency
system.cpu.dcache.demand_avg_miss_latency::total 34492.059394                       # average overall miss latency
system.cpu.dcache.overall_avg_miss_latency::.cpu.data 34469.330855                       # average overall miss latency
system.cpu.dcache.overall_avg_miss_latency::total 34469.330855                       # average overall miss latency
system.cpu.dcache.blocked_cycles::no_mshrs           62                       # number of cycles access was blocked
system.cpu.dcache.blocked_cycles::no_targets            0                       # number of cycles access was blocked
system.cpu.dcache.blocked::no_mshrs                 1                       # number of cycles access was blocked
system.cpu.dcache.blocked::no_targets               0                       # number of cycles access was blocked
system.cpu.dcache.avg_blocked_cycles::no_mshrs           62                       # average number of cycles each access was blocked
system.cpu.dcache.avg_blocked_cycles::no_targets          nan                       # average number of cycles each access was blocked
system.cpu.dcache.writebacks::.writebacks       304830                       # number of writebacks
system.cpu.dcache.writebacks::total            304830                       # number of writebacks
system.cpu.dcache.demand_mshr_hits::.cpu.data        12761                       # number of demand (read+write) MSHR hits
system.cpu.dcache.demand_mshr_hits::total        12761                       # number of demand (read+write) MSHR hits
system.cpu.dcache.overall_mshr_hits::.cpu.data        12761                       # number of overall MSHR hits
system.cpu.dcache.overall_mshr_hits::total        12761                       # number of overall MSHR hits
system.cpu.dcache.demand_mshr_misses::.cpu.data       308751                       # number of demand (read+write) MSHR misses
system.cpu.dcache.demand_mshr_misses::total       308751                       # number of demand (read+write) MSHR misses
system.cpu.dcache.overall_mshr_misses::.cpu.data       308947                       # number of overall MSHR misses
system.cpu.dcache.overall_mshr_misses::total       308947                       # number of overall MSHR misses
system.cpu.dcache.demand_mshr_miss_latency::.cpu.data  10017376000                       # number of demand (read+write) MSHR miss cycles
system.cpu.dcache.demand_mshr_miss_latency::total  10017376000                       # number of demand (read+write) MSHR miss cycles
system.cpu.dcache.overall_mshr_miss_latency::.cpu.data  10029146000                       # number of overall MSHR miss cycles
system.cpu.dcache.overall_mshr_miss_latency::total  10029146000                       # number of overall MSHR miss cycles
system.cpu.dcache.demand_mshr_miss_rate::.cpu.data     0.007034                       # mshr miss rate for demand accesses
system.cpu.dcache.demand_mshr_miss_rate::total     0.007034                       # mshr miss rate for demand accesses
system.cpu.dcache.overall_mshr_miss_rate::.cpu.data     0.007037                       # mshr miss rate for overall accesses
system.cpu.dcache.overall_mshr_miss_rate::total     0.007037                       # mshr miss rate for overall accesses
system.cpu.dcache.demand_avg_mshr_miss_latency::.cpu.data 32444.837426                       # average overall mshr miss latency
system.cpu.dcache.demand_avg_mshr_miss_latency::total 32444.837426                       # average overall mshr miss latency
system.cpu.dcache.overall_avg_mshr_miss_latency::.cpu.data 32462.351148                       # average overall mshr miss latency
system.cpu.dcache.overall_avg_mshr_miss_latency::total 32462.351148                       # average overall mshr miss latency
system.cpu.dcache.replacements                 308436                       # number of replacements
system.cpu.dcache.ReadReq_hits::.cpu.data     37341941                       # number of ReadReq hits
system.cpu.dcache.ReadReq_hits::total        37341941                       # number of ReadReq hits
system.cpu.dcache.ReadReq_misses::.cpu.data       231123                       # number of ReadReq misses
system.cpu.dcache.ReadReq_misses::total        231123                       # number of ReadReq misses
system.cpu.dcache.ReadReq_miss_latency::.cpu.data   8116253000                       # number of ReadReq miss cycles
system.cpu.dcache.ReadReq_miss_latency::total   8116253000                       # number of ReadReq miss cycles
system.cpu.dcache.ReadReq_accesses::.cpu.data     37573064                       # number of ReadReq accesses(hits+misses)
system.cpu.dcache.ReadReq_accesses::total     37573064                       # number of ReadReq accesses(hits+misses)
system.cpu.dcache.ReadReq_miss_rate::.cpu.data     0.006151                       # miss rate for ReadReq accesses
system.cpu.dcache.ReadReq_miss_rate::total     0.006151                       # miss rate for ReadReq accesses
system.cpu.dcache.ReadReq_avg_miss_latency::.cpu.data 35116.595925                       # average ReadReq miss latency
system.cpu.dcache.ReadReq_avg_miss_latency::total 35116.595925                       # average ReadReq miss latency
system.cpu.dcache.ReadReq_mshr_hits::.cpu.data         5333                       # number of ReadReq MSHR hits
system.cpu.dcache.ReadReq_mshr_hits::total         5333                       # number of ReadReq MSHR hits
system.cpu.dcache.ReadReq_mshr_misses::.cpu.data       225790                       # number of ReadReq MSHR misses
system.cpu.dcache.ReadReq_mshr_misses::total       225790                       # number of ReadReq MSHR misses
system.cpu.dcache.ReadReq_mshr_miss_latency::.cpu.data   7540966000                       # number of ReadReq MSHR miss cycles
system.cpu.dcache.ReadReq_mshr_miss_latency::total   7540966000                       # number of ReadReq MSHR miss cycles
system.cpu.dcache.ReadReq_mshr_miss_rate::.cpu.data     0.006009                       # mshr miss rate for ReadReq accesses
system.cpu.dcache.ReadReq_mshr_miss_rate::total     0.006009                       # mshr miss rate for ReadReq accesses
system.cpu.dcache.ReadReq_avg_mshr_miss_latency::.cpu.data 33398.139864                       # average ReadReq mshr miss latency
system.cpu.dcache.ReadReq_avg_mshr_miss_latency::total 33398.139864                       # average ReadReq mshr miss latency
system.cpu.dcache.WriteReq_hits::.cpu.data      6230443                       # number of WriteReq hits
system.cpu.dcache.WriteReq_hits::total        6230443                       # number of WriteReq hits
system.cpu.dcache.WriteReq_misses::.cpu.data        90389                       # number of WriteReq misses
system.cpu.dcache.WriteReq_misses::total        90389                       # number of WriteReq misses
system.cpu.dcache.WriteReq_miss_latency::.cpu.data   2973358000                       # number of WriteReq miss cycles
system.cpu.dcache.WriteReq_miss_latency::total   2973358000                       # number of WriteReq miss cycles
system.cpu.dcache.WriteReq_accesses::.cpu.data      6320832                       # number of WriteReq accesses(hits+misses)
system.cpu.dcache.WriteReq_accesses::total      6320832                       # number of WriteReq accesses(hits+misses)
system.cpu.dcache.WriteReq_miss_rate::.cpu.data     0.014300                       # miss rate for WriteReq accesses
system.cpu.dcache.WriteReq_miss_rate::total     0.014300                       # miss rate for WriteReq accesses
system.cpu.dcache.WriteReq_avg_miss_latency::.cpu.data 32895.131045                       # average WriteReq miss latency
system.cpu.dcache.WriteReq_avg_miss_latency::total 32895.131045                       # average WriteReq miss latency
system.cpu.dcache.WriteReq_mshr_hits::.cpu.data         7428                       # number of WriteReq MSHR hits
system.cpu.dcache.WriteReq_mshr_hits::total         7428                       # number of WriteReq MSHR hits
system.cpu.dcache.WriteReq_mshr_misses::.cpu.data        82961                       # number of WriteReq MSHR misses
system.cpu.dcache.WriteReq_mshr_misses::total        82961                       # number of WriteReq MSHR misses
system.cpu.dcache.WriteReq_mshr_miss_latency::.cpu.data   2476410000                       # number of WriteReq MSHR miss cycles
system.cpu.dcache.WriteReq_mshr_miss_latency::total   2476410000                       # number of WriteReq MSHR miss cycles
system.cpu.dcache.WriteReq_mshr_miss_rate::.cpu.data     0.013125                       # mshr miss rate for WriteReq accesses
system.cpu.dcache.WriteReq_mshr_miss_rate::total     0.013125                       # mshr miss rate for WriteReq accesses
system.cpu.dcache.WriteReq_avg_mshr_miss_latency::.cpu.data 29850.291101                       # average WriteReq mshr miss latency
system.cpu.dcache.WriteReq_avg_mshr_miss_latency::total 29850.291101                       # average WriteReq mshr miss latency
system.cpu.dcache.SoftPFReq_hits::.cpu.data         8537                       # number of SoftPFReq hits
system.cpu.dcache.SoftPFReq_hits::total          8537                       # number of SoftPFReq hits
system.cpu.dcache.SoftPFReq_misses::.cpu.data          212                       # number of SoftPFReq misses
system.cpu.dcache.SoftPFReq_misses::total          212                       # number of SoftPFReq misses
system.cpu.dcache.SoftPFReq_accesses::.cpu.data         8749                       # number of SoftPFReq accesses(hits+misses)
system.cpu.dcache.SoftPFReq_accesses::total         8749                       # number of SoftPFReq accesses(hits+misses)
system.cpu.dcache.SoftPFReq_miss_rate::.cpu.data     0.024231                       # miss rate for SoftPFReq accesses
system.cpu.dcache.SoftPFReq_miss_rate::total     0.024231                       # miss rate for SoftPFReq accesses
system.cpu.dcache.SoftPFReq_mshr_misses::.cpu.data          196                       # number of SoftPFReq MSHR misses
system.cpu.dcache.SoftPFReq_mshr_misses::total          196                       # number of SoftPFReq MSHR misses
system.cpu.dcache.SoftPFReq_mshr_miss_latency::.cpu.data     11770000                       # number of SoftPFReq MSHR miss cycles
system.cpu.dcache.SoftPFReq_mshr_miss_latency::total     11770000                       # number of SoftPFReq MSHR miss cycles
system.cpu.dcache.SoftPFReq_mshr_miss_rate::.cpu.data     0.022403                       # mshr miss rate for SoftPFReq accesses
system.cpu.dcache.SoftPFReq_mshr_miss_rate::total     0.022403                       # mshr miss rate for SoftPFReq accesses
system.cpu.dcache.SoftPFReq_avg_mshr_miss_latency::.cpu.data 60051.020408                       # average SoftPFReq mshr miss latency
system.cpu.dcache.SoftPFReq_avg_mshr_miss_latency::total 60051.020408                       # average SoftPFReq mshr miss latency
system.cpu.dcache.LoadLockedReq_hits::.cpu.data          165                       # number of LoadLockedReq hits
system.cpu.dcache.LoadLockedReq_hits::total          165                       # number of LoadLockedReq hits
system.cpu.dcache.LoadLockedReq_misses::.cpu.data            1                       # number of LoadLockedReq misses
system.cpu.dcache.LoadLockedReq_misses::total            1                       # number of LoadLockedReq misses
system.cpu.dcache.LoadLockedReq_miss_latency::.cpu.data       109000                       # number of LoadLockedReq miss cycles
system.cpu.dcache.LoadLockedReq_miss_latency::total       109000                       # number of LoadLockedReq miss cycles
system.cpu.dcache.LoadLockedReq_accesses::.cpu.data          166                       # number of LoadLockedReq accesses(hits+misses)
system.cpu.dcache.LoadLockedReq_accesses::total          166                       # number of LoadLockedReq accesses(hits+misses)
system.cpu.dcache.LoadLockedReq_miss_rate::.cpu.data     0.006024                       # miss rate for LoadLockedReq accesses
system.cpu.dcache.LoadLockedReq_miss_rate::total     0.006024                       # miss rate for LoadLockedReq accesses
system.cpu.dcache.LoadLockedReq_avg_miss_latency::.cpu.data       109000                       # average LoadLockedReq miss latency
system.cpu.dcache.LoadLockedReq_avg_miss_latency::total       109000                       # average LoadLockedReq miss latency
system.cpu.dcache.LoadLockedReq_mshr_misses::.cpu.data            1                       # number of LoadLockedReq MSHR misses
system.cpu.dcache.LoadLockedReq_mshr_misses::total            1                       # number of LoadLockedReq MSHR misses
system.cpu.dcache.LoadLockedReq_mshr_miss_latency::.cpu.data       107000                       # number of LoadLockedReq MSHR miss cycles
system.cpu.dcache.LoadLockedReq_mshr_miss_latency::total       107000                       # number of LoadLockedReq MSHR miss cycles
system.cpu.dcache.LoadLockedReq_mshr_miss_rate::.cpu.data     0.006024                       # mshr miss rate for LoadLockedReq accesses
system.cpu.dcache.LoadLockedReq_mshr_miss_rate::total     0.006024                       # mshr miss rate for LoadLockedReq accesses
system.cpu.dcache.LoadLockedReq_avg_mshr_miss_latency::.cpu.data       107000                       # average LoadLockedReq mshr miss latency
system.cpu.dcache.LoadLockedReq_avg_mshr_miss_latency::total       107000                       # average LoadLockedReq mshr miss latency
system.cpu.dcache.StoreCondReq_hits::.cpu.data          166                       # number of StoreCondReq hits
system.cpu.dcache.StoreCondReq_hits::total          166                       # number of StoreCondReq hits
system.cpu.dcache.StoreCondReq_accesses::.cpu.data          166                       # number of StoreCondReq accesses(hits+misses)
system.cpu.dcache.StoreCondReq_accesses::total          166                       # number of StoreCondReq accesses(hits+misses)
system.cpu.dcache.power_state.pwrStateResidencyTicks::UNDEFINED 126085401000                       # Cumulative time (in ticks) in various power states
system.cpu.dcache.tags.tagsinuse           509.232297                       # Cycle average of tags in use
system.cpu.dcache.tags.total_refs            43890200                       # Total number of references to valid blocks.
system.cpu.dcache.tags.sampled_refs            308948                       # Sample count of references to valid blocks.
system.cpu.dcache.tags.avg_refs            142.063389                       # Average number of references to valid blocks.
system.cpu.dcache.tags.warmup_cycle            223000                       # Cycle when the warmup percentage was hit.
system.cpu.dcache.tags.occ_blocks::.cpu.data   509.232297                       # Average occupied blocks per requestor
system.cpu.dcache.tags.occ_percent::.cpu.data     0.994594                       # Average percentage of cache occupancy
system.cpu.dcache.tags.occ_percent::total     0.994594                       # Average percentage of cache occupancy
system.cpu.dcache.tags.occ_task_id_blocks::1024          512                       # Occupied blocks per task id
system.cpu.dcache.tags.age_task_id_blocks_1024::0            9                       # Occupied blocks per task id
system.cpu.dcache.tags.age_task_id_blocks_1024::1           57                       # Occupied blocks per task id
system.cpu.dcache.tags.age_task_id_blocks_1024::2          242                       # Occupied blocks per task id
system.cpu.dcache.tags.age_task_id_blocks_1024::3          204                       # Occupied blocks per task id
system.cpu.dcache.tags.occ_task_id_percent::1024            1                       # Percentage of cache occupancy per task id
system.cpu.dcache.tags.tag_accesses          44211925                       # Number of tag accesses
system.cpu.dcache.tags.data_accesses         44211925                       # Number of data accesses
system.cpu.dcache.tags.power_state.pwrStateResidencyTicks::UNDEFINED 126085401000                       # Cumulative time (in ticks) in various power states
system.cpu.dtb.instHits                             0                       # ITB inst hits
system.cpu.dtb.instMisses                           0                       # ITB inst misses
system.cpu.dtb.readHits                             0                       # DTB read hits
system.cpu.dtb.readMisses                           0                       # DTB read misses
system.cpu.dtb.writeHits                            0                       # DTB write hits
system.cpu.dtb.writeMisses                          0                       # DTB write misses
system.cpu.dtb.inserts                              0                       # Number of times an entry is inserted into the TLB
system.cpu.dtb.flushTlb                             0                       # Number of times complete TLB was flushed
system.cpu.dtb.flushTlbMva                          0                       # Number of times TLB was flushed by MVA
system.cpu.dtb.flushTlbMvaAsid                      0                       # Number of times TLB was flushed by MVA & ASID
system.cpu.dtb.flushTlbAsid                         0                       # Number of times TLB was flushed by ASID
system.cpu.dtb.flushedEntries                       0                       # Number of entries that have been flushed from TLB
system.cpu.dtb.alignFaults                          0                       # Number of TLB faults due to alignment restrictions
system.cpu.dtb.prefetchFaults                       0                       # Number of TLB faults due to prefetch
system.cpu.dtb.domainFaults                         0                       # Number of TLB faults due to domain restrictions
system.cpu.dtb.permsFaults                          0                       # Number of TLB faults due to permissions restrictions
system.cpu.dtb.readAccesses                         0                       # DTB read accesses
system.cpu.dtb.writeAccesses                        0                       # DTB write accesses
system.cpu.dtb.instAccesses                         0                       # ITB inst accesses
system.cpu.dtb.hits                                 0                       # Total TLB (inst and data) hits
system.cpu.dtb.misses                               0                       # Total TLB (inst and data) misses
system.cpu.dtb.accesses                             0                       # Total TLB (inst and data) accesses
system.cpu.dtb.stage2_mmu.stage2_tlb.instHits            0                       # ITB inst hits
system.cpu.dtb.stage2_mmu.stage2_tlb.instMisses            0                       # ITB inst misses
system.cpu.dtb.stage2_mmu.stage2_tlb.readHits            0                       # DTB read hits
system.cpu.dtb.stage2_mmu.stage2_tlb.readMisses            0                       # DTB read misses
system.cpu.dtb.stage2_mmu.stage2_tlb.writeHits            0                       # DTB write hits
system.cpu.dtb.stage2_mmu.stage2_tlb.writeMisses            0                       # DTB write misses
system.cpu.dtb.stage2_mmu.stage2_tlb.inserts            0                       # Number of times an entry is inserted into the TLB
system.cpu.dtb.stage2_mmu.stage2_tlb.flushTlb            0                       # Number of times complete TLB was flushed
system.cpu.dtb.stage2_mmu.stage2_tlb.flushTlbMva            0                       # Number of times TLB was flushed by MVA
system.cpu.dtb.stage2_mmu.stage2_tlb.flushTlbMvaAsid            0                       # Number of times TLB was flushed by MVA & ASID
system.cpu.dtb.stage2_mmu.stage2_tlb.flushTlbAsid            0                       # Number of times TLB was flushed by ASID
system.cpu.dtb.stage2_mmu.stage2_tlb.flushedEntries            0                       # Number of entries that have been flushed from TLB
system.cpu.dtb.stage2_mmu.stage2_tlb.alignFaults            0                       # Number of TLB faults due to alignment restrictions
system.cpu.dtb.stage2_mmu.stage2_tlb.prefetchFaults            0                       # Number of TLB faults due to prefetch
system.cpu.dtb.stage2_mmu.stage2_tlb.domainFaults            0                       # Number of TLB faults due to domain restrictions
system.cpu.dtb.stage2_mmu.stage2_tlb.permsFaults            0                       # Number of TLB faults due to permissions restrictions
system.cpu.dtb.stage2_mmu.stage2_tlb.readAccesses            0                       # DTB read accesses
system.cpu.dtb.stage2_mmu.stage2_tlb.writeAccesses            0                       # DTB write accesses
system.cpu.dtb.stage2_mmu.stage2_tlb.instAccesses            0                       # ITB inst accesses
system.cpu.dtb.stage2_mmu.stage2_tlb.hits            0                       # Total TLB (inst and data) hits
system.cpu.dtb.stage2_mmu.stage2_tlb.misses            0                       # Total TLB (inst and data) misses
system.cpu.dtb.stage2_mmu.stage2_tlb.accesses            0                       # Total TLB (inst and data) accesses
system.cpu.dtb.stage2_mmu.stage2_tlb.walker.walks            0                       # Table walker walks requested
system.cpu.dtb.stage2_mmu.stage2_tlb.walker.requestOrigin_Requested::Data            0                       # Table walker requests started/completed, data/inst
system.cpu.dtb.stage2_mmu.stage2_tlb.walker.requestOrigin_Requested::Inst            0                       # Table walker requests started/completed, data/inst
system.cpu.dtb.stage2_mmu.stage2_tlb.walker.requestOrigin_Requested::total            0                       # Table walker requests started/completed, data/inst
system.cpu.dtb.stage2_mmu.stage2_tlb.walker.requestOrigin_Completed::Data            0                       # Table walker requests started/completed, data/inst
system.cpu.dtb.stage2_mmu.stage2_tlb.walker.requestOrigin_Completed::Inst            0                       # Table walker requests started/completed, data/inst
system.cpu.dtb.stage2_mmu.stage2_tlb.walker.requestOrigin_Completed::total            0                       # Table walker requests started/completed, data/inst
system.cpu.dtb.stage2_mmu.stage2_tlb.walker.requestOrigin::total            0                       # Table walker requests started/completed, data/inst
system.cpu.dtb.stage2_mmu.stage2_tlb.walker.power_state.pwrStateResidencyTicks::UNDEFINED 126085401000                       # Cumulative time (in ticks) in various power states
system.cpu.dtb.walker.walks                         0                       # Table walker walks requested
system.cpu.dtb.walker.requestOrigin_Requested::Data            0                       # Table walker requests started/completed, data/inst
system.cpu.dtb.walker.requestOrigin_Requested::Inst            0                       # Table walker requests started/completed, data/inst
system.cpu.dtb.walker.requestOrigin_Requested::total            0                       # Table walker requests started/completed, data/inst
system.cpu.dtb.walker.requestOrigin_Completed::Data            0                       # Table walker requests started/completed, data/inst
system.cpu.dtb.walker.requestOrigin_Completed::Inst            0                       # Table walker requests started/completed, data/inst
system.cpu.dtb.walker.requestOrigin_Completed::total            0                       # Table walker requests started/completed, data/inst
system.cpu.dtb.walker.requestOrigin::total            0                       # Table walker requests started/completed, data/inst
system.cpu.dtb.walker.power_state.pwrStateResidencyTicks::UNDEFINED 126085401000                       # Cumulative time (in ticks) in various power states
system.cpu.fetch2.intInstructions            48873731                       # Number of integer instructions successfully decoded
system.cpu.fetch2.fpInstructions                    0                       # Number of floating point instructions successfully decoded
system.cpu.fetch2.vecInstructions                   0                       # Number of SIMD instructions successfully decoded
system.cpu.fetch2.loadInstructions           40555935                       # Number of memory load instructions successfully decoded
system.cpu.fetch2.storeInstructions           6266037                       # Number of memory store instructions successfully decoded
system.cpu.fetch2.amoInstructions                   0                       # Number of memory atomic instructions successfully decoded
system.cpu.icache.demand_hits::.cpu.inst     17293870                       # number of demand (read+write) hits
system.cpu.icache.demand_hits::total         17293870                       # number of demand (read+write) hits
system.cpu.icache.overall_hits::.cpu.inst     17293870                       # number of overall hits
system.cpu.icache.overall_hits::total        17293870                       # number of overall hits
system.cpu.icache.demand_misses::.cpu.inst         1408                       # number of demand (read+write) misses
system.cpu.icache.demand_misses::total           1408                       # number of demand (read+write) misses
system.cpu.icache.overall_misses::.cpu.inst         1408                       # number of overall misses
system.cpu.icache.overall_misses::total          1408                       # number of overall misses
system.cpu.icache.demand_miss_latency::.cpu.inst    137396000                       # number of demand (read+write) miss cycles
system.cpu.icache.demand_miss_latency::total    137396000                       # number of demand (read+write) miss cycles
system.cpu.icache.overall_miss_latency::.cpu.inst    137396000                       # number of overall miss cycles
system.cpu.icache.overall_miss_latency::total    137396000                       # number of overall miss cycles
system.cpu.icache.demand_accesses::.cpu.inst     17295278                       # number of demand (read+write) accesses
system.cpu.icache.demand_accesses::total     17295278                       # number of demand (read+write) accesses
system.cpu.icache.overall_accesses::.cpu.inst     17295278                       # number of overall (read+write) accesses
system.cpu.icache.overall_accesses::total     17295278                       # number of overall (read+write) accesses
system.cpu.icache.demand_miss_rate::.cpu.inst     0.000081                       # miss rate for demand accesses
system.cpu.icache.demand_miss_rate::total     0.000081                       # miss rate for demand accesses
system.cpu.icache.overall_miss_rate::.cpu.inst     0.000081                       # miss rate for overall accesses
system.cpu.icache.overall_miss_rate::total     0.000081                       # miss rate for overall accesses
system.cpu.icache.demand_avg_miss_latency::.cpu.inst 97582.386364                       # average overall miss latency
system.cpu.icache.demand_avg_miss_latency::total 97582.386364                       # average overall miss latency
system.cpu.icache.overall_avg_miss_latency::.cpu.inst 97582.386364                       # average overall miss latency
system.cpu.icache.overall_avg_miss_latency::total 97582.386364                       # average overall miss latency
system.cpu.icache.blocked_cycles::no_mshrs            0                       # number of cycles access was blocked
system.cpu.icache.blocked_cycles::no_targets            0                       # number of cycles access was blocked
system.cpu.icache.blocked::no_mshrs                 0                       # number of cycles access was blocked
system.cpu.icache.blocked::no_targets               0                       # number of cycles access was blocked
system.cpu.icache.avg_blocked_cycles::no_mshrs          nan                       # average number of cycles each access was blocked
system.cpu.icache.avg_blocked_cycles::no_targets          nan                       # average number of cycles each access was blocked
system.cpu.icache.writebacks::.writebacks          436                       # number of writebacks
system.cpu.icache.writebacks::total               436                       # number of writebacks
system.cpu.icache.demand_mshr_misses::.cpu.inst         1408                       # number of demand (read+write) MSHR misses
system.cpu.icache.demand_mshr_misses::total         1408                       # number of demand (read+write) MSHR misses
system.cpu.icache.overall_mshr_misses::.cpu.inst         1408                       # number of overall MSHR misses
system.cpu.icache.overall_mshr_misses::total         1408                       # number of overall MSHR misses
system.cpu.icache.demand_mshr_miss_latency::.cpu.inst    134580000                       # number of demand (read+write) MSHR miss cycles
system.cpu.icache.demand_mshr_miss_latency::total    134580000                       # number of demand (read+write) MSHR miss cycles
system.cpu.icache.overall_mshr_miss_latency::.cpu.inst    134580000                       # number of overall MSHR miss cycles
system.cpu.icache.overall_mshr_miss_latency::total    134580000                       # number of overall MSHR miss cycles
system.cpu.icache.demand_mshr_miss_rate::.cpu.inst     0.000081                       # mshr miss rate for demand accesses
system.cpu.icache.demand_mshr_miss_rate::total     0.000081                       # mshr miss rate for demand accesses
system.cpu.icache.overall_mshr_miss_rate::.cpu.inst     0.000081                       # mshr miss rate for overall accesses
system.cpu.icache.overall_mshr_miss_rate::total     0.000081                       # mshr miss rate for overall accesses
system.cpu.icache.demand_avg_mshr_miss_latency::.cpu.inst 95582.386364                       # average overall mshr miss latency
system.cpu.icache.demand_avg_mshr_miss_latency::total 95582.386364                       # average overall mshr miss latency
system.cpu.icache.overall_avg_mshr_miss_latency::.cpu.inst 95582.386364                       # average overall mshr miss latency
system.cpu.icache.overall_avg_mshr_miss_latency::total 95582.386364                       # average overall mshr miss latency
system.cpu.icache.replacements                    436                       # number of replacements
system.cpu.icache.ReadReq_hits::.cpu.inst     17293870                       # number of ReadReq hits
system.cpu.icache.ReadReq_hits::total        17293870                       # number of ReadReq hits
system.cpu.icache.ReadReq_misses::.cpu.inst         1408                       # number of ReadReq misses
system.cpu.icache.ReadReq_misses::total          1408                       # number of ReadReq misses
system.cpu.icache.ReadReq_miss_latency::.cpu.inst    137396000                       # number of ReadReq miss cycles
system.cpu.icache.ReadReq_miss_latency::total    137396000                       # number of ReadReq miss cycles
system.cpu.icache.ReadReq_accesses::.cpu.inst     17295278                       # number of ReadReq accesses(hits+misses)
system.cpu.icache.ReadReq_accesses::total     17295278                       # number of ReadReq accesses(hits+misses)
system.cpu.icache.ReadReq_miss_rate::.cpu.inst     0.000081                       # miss rate for ReadReq accesses
system.cpu.icache.ReadReq_miss_rate::total     0.000081                       # miss rate for ReadReq accesses
system.cpu.icache.ReadReq_avg_miss_latency::.cpu.inst 97582.386364                       # average ReadReq miss latency
system.cpu.icache.ReadReq_avg_miss_latency::total 97582.386364                       # average ReadReq miss latency
system.cpu.icache.ReadReq_mshr_misses::.cpu.inst         1408                       # number of ReadReq MSHR misses
system.cpu.icache.ReadReq_mshr_misses::total         1408                       # number of ReadReq MSHR misses
system.cpu.icache.ReadReq_mshr_miss_latency::.cpu.inst    134580000                       # number of ReadReq MSHR miss cycles
system.cpu.icache.ReadReq_mshr_miss_latency::total    134580000                       # number of ReadReq MSHR miss cycles
system.cpu.icache.ReadReq_mshr_miss_rate::.cpu.inst     0.000081                       # mshr miss rate for ReadReq accesses
system.cpu.icache.ReadReq_mshr_miss_rate::total     0.000081                       # mshr miss rate for ReadReq accesses
system.cpu.icache.ReadReq_avg_mshr_miss_latency::.cpu.inst 95582.386364                       # average ReadReq mshr miss latency
system.cpu.icache.ReadReq_avg_mshr_miss_latency::total 95582.386364                       # average ReadReq mshr miss latency
system.cpu.icache.power_state.pwrStateResidencyTicks::UNDEFINED 126085401000                       # Cumulative time (in ticks) in various power states
system.cpu.icache.tags.tagsinuse           970.627351                       # Cycle average of tags in use
system.cpu.icache.tags.total_refs            17295278                       # Total number of references to valid blocks.
system.cpu.icache.tags.sampled_refs              1408                       # Sample count of references to valid blocks.
system.cpu.icache.tags.avg_refs          12283.578125                       # Average number of references to valid blocks.
system.cpu.icache.tags.warmup_cycle            108000                       # Cycle when the warmup percentage was hit.
system.cpu.icache.tags.occ_blocks::.cpu.inst   970.627351                       # Average occupied blocks per requestor
system.cpu.icache.tags.occ_percent::.cpu.inst     0.947878                       # Average percentage of cache occupancy
system.cpu.icache.tags.occ_percent::total     0.947878                       # Average percentage of cache occupancy
system.cpu.icache.tags.occ_task_id_blocks::1024          972                       # Occupied blocks per task id
system.cpu.icache.tags.age_task_id_blocks_1024::4          972                       # Occupied blocks per task id
system.cpu.icache.tags.occ_task_id_percent::1024     0.949219                       # Percentage of cache occupancy per task id
system.cpu.icache.tags.tag_accesses         138363632                       # Number of tag accesses
system.cpu.icache.tags.data_accesses        138363632                       # Number of data accesses
system.cpu.icache.tags.power_state.pwrStateResidencyTicks::UNDEFINED 126085401000                       # Cumulative time (in ticks) in various power states
system.cpu.itb.instHits                             0                       # ITB inst hits
system.cpu.itb.instMisses                           0                       # ITB inst misses
system.cpu.itb.readHits                             0                       # DTB read hits
system.cpu.itb.readMisses                           0                       # DTB read misses
system.cpu.itb.writeHits                            0                       # DTB write hits
system.cpu.itb.writeMisses                          0                       # DTB write misses
system.cpu.itb.inserts                              0                       # Number of times an entry is inserted into the TLB
system.cpu.itb.flushTlb                             0                       # Number of times complete TLB was flushed
system.cpu.itb.flushTlbMva                          0                       # Number of times TLB was flushed by MVA
system.cpu.itb.flushTlbMvaAsid                      0                       # Number of times TLB was flushed by MVA & ASID
system.cpu.itb.flushTlbAsid                         0                       # Number of times TLB was flushed by ASID
system.cpu.itb.flushedEntries                       0                       # Number of entries that have been flushed from TLB
system.cpu.itb.alignFaults                          0                       # Number of TLB faults due to alignment restrictions
system.cpu.itb.prefetchFaults                       0                       # Number of TLB faults due to prefetch
system.cpu.itb.domainFaults                         0                       # Number of TLB faults due to domain restrictions
system.cpu.itb.permsFaults                          0                       # Number of TLB faults due to permissions restrictions
system.cpu.itb.readAccesses                         0                       # DTB read accesses
system.cpu.itb.writeAccesses                        0                       # DTB write accesses
system.cpu.itb.instAccesses                         0                       # ITB inst accesses
system.cpu.itb.hits                                 0                       # Total TLB (inst and data) hits
system.cpu.itb.misses                               0                       # Total TLB (inst and data) misses
system.cpu.itb.accesses                             0                       # Total TLB (inst and data) accesses
system.cpu.itb.stage2_mmu.stage2_tlb.instHits            0                       # ITB inst hits
system.cpu.itb.stage2_mmu.stage2_tlb.instMisses            0                       # ITB inst misses
system.cpu.itb.stage2_mmu.stage2_tlb.readHits            0                       # DTB read hits
system.cpu.itb.stage2_mmu.stage2_tlb.readMisses            0                       # DTB read misses
system.cpu.itb.stage2_mmu.stage2_tlb.writeHits            0                       # DTB write hits
system.cpu.itb.stage2_mmu.stage2_tlb.writeMisses            0                       # DTB write misses
system.cpu.itb.stage2_mmu.stage2_tlb.inserts            0                       # Number of times an entry is inserted into the TLB
system.cpu.itb.stage2_mmu.stage2_tlb.flushTlb            0                       # Number of times complete TLB was flushed
system.cpu.itb.stage2_mmu.stage2_tlb.flushTlbMva            0                       # Number of times TLB was flushed by MVA
system.cpu.itb.stage2_mmu.stage2_tlb.flushTlbMvaAsid            0                       # Number of times TLB was flushed by MVA & ASID
system.cpu.itb.stage2_mmu.stage2_tlb.flushTlbAsid            0                       # Number of times TLB was flushed by ASID
system.cpu.itb.stage2_mmu.stage2_tlb.flushedEntries            0                       # Number of entries that have been flushed from TLB
system.cpu.itb.stage2_mmu.stage2_tlb.alignFaults            0                       # Number of TLB faults due to alignment restrictions
system.cpu.itb.stage2_mmu.stage2_tlb.prefetchFaults            0                       # Number of TLB faults due to prefetch
system.cpu.itb.stage2_mmu.stage2_tlb.domainFaults            0                       # Number of TLB faults due to domain restrictions
system.cpu.itb.stage2_mmu.stage2_tlb.permsFaults            0                       # Number of TLB faults due to permissions restrictions
system.cpu.itb.stage2_mmu.stage2_tlb.readAccesses            0                       # DTB read accesses
system.cpu.itb.stage2_mmu.stage2_tlb.writeAccesses            0                       # DTB write accesses
system.cpu.itb.stage2_mmu.stage2_tlb.instAccesses            0                       # ITB inst accesses
system.cpu.itb.stage2_mmu.stage2_tlb.hits            0                       # Total TLB (inst and data) hits
system.cpu.itb.stage2_mmu.stage2_tlb.misses            0                       # Total TLB (inst and data) misses
system.cpu.itb.stage2_mmu.stage2_tlb.accesses            0                       # Total TLB (inst and data) accesses
system.cpu.itb.stage2_mmu.stage2_tlb.walker.walks            0                       # Table walker walks requested
system.cpu.itb.stage2_mmu.stage2_tlb.walker.requestOrigin_Requested::Data            0                       # Table walker requests started/completed, data/inst
system.cpu.itb.stage2_mmu.stage2_tlb.walker.requestOrigin_Requested::Inst            0                       # Table walker requests started/completed, data/inst
system.cpu.itb.stage2_mmu.stage2_tlb.walker.requestOrigin_Requested::total            0                       # Table walker requests started/completed, data/inst
system.cpu.itb.stage2_mmu.stage2_tlb.walker.requestOrigin_Completed::Data            0                       # Table walker requests started/completed, data/inst
system.cpu.itb.stage2_mmu.stage2_tlb.walker.requestOrigin_Completed::Inst            0                       # Table walker requests started/completed, data/inst
system.cpu.itb.stage2_mmu.stage2_tlb.walker.requestOrigin_Completed::total            0                       # Table walker requests started/completed, data/inst
system.cpu.itb.stage2_mmu.stage2_tlb.walker.requestOrigin::total            0                       # Table walker requests started/completed, data/inst
system.cpu.itb.stage2_mmu.stage2_tlb.walker.power_state.pwrStateResidencyTicks::UNDEFINED 126085401000                       # Cumulative time (in ticks) in various power states
system.cpu.itb.walker.walks                         0                       # Table walker walks requested
system.cpu.itb.walker.requestOrigin_Requested::Data            0                       # Table walker requests started/completed, data/inst
system.cpu.itb.walker.requestOrigin_Requested::Inst            0                       # Table walker requests started/completed, data/inst
system.cpu.itb.walker.requestOrigin_Requested::total            0                       # Table walker requests started/completed, data/inst
system.cpu.itb.walker.requestOrigin_Completed::Data            0                       # Table walker requests started/completed, data/inst
system.cpu.itb.walker.requestOrigin_Completed::Inst            0                       # Table walker requests started/completed, data/inst
system.cpu.itb.walker.requestOrigin_Completed::total            0                       # Table walker requests started/completed, data/inst
system.cpu.itb.walker.requestOrigin::total            0                       # Table walker requests started/completed, data/inst
system.cpu.itb.walker.power_state.pwrStateResidencyTicks::UNDEFINED 126085401000                       # Cumulative time (in ticks) in various power states
system.cpu.power_state.pwrStateResidencyTicks::ON 126085401000                       # Cumulative time (in ticks) in various power states
system.cpu.thread_0.numInsts                100000000                       # Number of Instructions committed
system.cpu.thread_0.numOps                  101102842                       # Number of Ops committed
system.cpu.thread_0.numMemRefs                      0                       # Number of Memory References
system.cpu_clk_domain.clock                      1000                       # Clock period in ticks
system.cpu_voltage_domain.voltage                   1                       # Voltage in Volts
system.l2.demand_hits::.cpu.inst                  104                       # number of demand (read+write) hits
system.l2.demand_hits::.cpu.data               304751                       # number of demand (read+write) hits
system.l2.demand_hits::total                   304855                       # number of demand (read+write) hits
system.l2.overall_hits::.cpu.inst                 104                       # number of overall hits
system.l2.overall_hits::.cpu.data              304751                       # number of overall hits
system.l2.overall_hits::total                  304855                       # number of overall hits
system.l2.demand_misses::.cpu.inst               1304                       # number of demand (read+write) misses
system.l2.demand_misses::.cpu.data               4197                       # number of demand (read+write) misses
system.l2.demand_misses::total                   5501                       # number of demand (read+write) misses
system.l2.overall_misses::.cpu.inst              1304                       # number of overall misses
system.l2.overall_misses::.cpu.data              4197                       # number of overall misses
system.l2.overall_misses::total                  5501                       # number of overall misses
system.l2.demand_miss_latency::.cpu.inst    128074000                       # number of demand (read+write) miss cycles
system.l2.demand_miss_latency::.cpu.data    416837000                       # number of demand (read+write) miss cycles
system.l2.demand_miss_latency::total        544911000                       # number of demand (read+write) miss cycles
system.l2.overall_miss_latency::.cpu.inst    128074000                       # number of overall miss cycles
system.l2.overall_miss_latency::.cpu.data    416837000                       # number of overall miss cycles
system.l2.overall_miss_latency::total       544911000                       # number of overall miss cycles
system.l2.demand_accesses::.cpu.inst             1408                       # number of demand (read+write) accesses
system.l2.demand_accesses::.cpu.data           308948                       # number of demand (read+write) accesses
system.l2.demand_accesses::total               310356                       # number of demand (read+write) accesses
system.l2.overall_accesses::.cpu.inst            1408                       # number of overall (read+write) accesses
system.l2.overall_accesses::.cpu.data          308948                       # number of overall (read+write) accesses
system.l2.overall_accesses::total              310356                       # number of overall (read+write) accesses
system.l2.demand_miss_rate::.cpu.inst        0.926136                       # miss rate for demand accesses
system.l2.demand_miss_rate::.cpu.data        0.013585                       # miss rate for demand accesses
system.l2.demand_miss_rate::total            0.017725                       # miss rate for demand accesses
system.l2.overall_miss_rate::.cpu.inst       0.926136                       # miss rate for overall accesses
system.l2.overall_miss_rate::.cpu.data       0.013585                       # miss rate for overall accesses
system.l2.overall_miss_rate::total           0.017725                       # miss rate for overall accesses
system.l2.demand_avg_miss_latency::.cpu.inst 98216.257669                       # average overall miss latency
system.l2.demand_avg_miss_latency::.cpu.data 99317.846081                       # average overall miss latency
system.l2.demand_avg_miss_latency::total 99056.716961                       # average overall miss latency
system.l2.overall_avg_miss_latency::.cpu.inst 98216.257669                       # average overall miss latency
system.l2.overall_avg_miss_latency::.cpu.data 99317.846081                       # average overall miss latency
system.l2.overall_avg_miss_latency::total 99056.716961                       # average overall miss latency
system.l2.blocked_cycles::no_mshrs                  0                       # number of cycles access was blocked
system.l2.blocked_cycles::no_targets                0                       # number of cycles access was blocked
system.l2.blocked::no_mshrs                         0                       # number of cycles access was blocked
system.l2.blocked::no_targets                       0                       # number of cycles access was blocked
system.l2.avg_blocked_cycles::no_mshrs            nan                       # average number of cycles each access was blocked
system.l2.avg_blocked_cycles::no_targets          nan                       # average number of cycles each access was blocked
system.l2.writebacks::.writebacks                   4                       # number of writebacks
system.l2.writebacks::total                         4                       # number of writebacks
system.l2.demand_mshr_hits::.cpu.data               6                       # number of demand (read+write) MSHR hits
system.l2.demand_mshr_hits::total                   6                       # number of demand (read+write) MSHR hits
system.l2.overall_mshr_hits::.cpu.data              6                       # number of overall MSHR hits
system.l2.overall_mshr_hits::total                  6                       # number of overall MSHR hits
system.l2.demand_mshr_misses::.cpu.inst          1304                       # number of demand (read+write) MSHR misses
system.l2.demand_mshr_misses::.cpu.data          4191                       # number of demand (read+write) MSHR misses
system.l2.demand_mshr_misses::total              5495                       # number of demand (read+write) MSHR misses
system.l2.overall_mshr_misses::.cpu.inst         1304                       # number of overall MSHR misses
system.l2.overall_mshr_misses::.cpu.data         4191                       # number of overall MSHR misses
system.l2.overall_mshr_misses::total             5495                       # number of overall MSHR misses
system.l2.demand_mshr_miss_latency::.cpu.inst    101994000                       # number of demand (read+write) MSHR miss cycles
system.l2.demand_mshr_miss_latency::.cpu.data    332566000                       # number of demand (read+write) MSHR miss cycles
system.l2.demand_mshr_miss_latency::total    434560000                       # number of demand (read+write) MSHR miss cycles
system.l2.overall_mshr_miss_latency::.cpu.inst    101994000                       # number of overall MSHR miss cycles
system.l2.overall_mshr_miss_latency::.cpu.data    332566000                       # number of overall MSHR miss cycles
system.l2.overall_mshr_miss_latency::total    434560000                       # number of overall MSHR miss cycles
system.l2.demand_mshr_miss_rate::.cpu.inst     0.926136                       # mshr miss rate for demand accesses
system.l2.demand_mshr_miss_rate::.cpu.data     0.013565                       # mshr miss rate for demand accesses
system.l2.demand_mshr_miss_rate::total       0.017705                       # mshr miss rate for demand accesses
system.l2.overall_mshr_miss_rate::.cpu.inst     0.926136                       # mshr miss rate for overall accesses
system.l2.overall_mshr_miss_rate::.cpu.data     0.013565                       # mshr miss rate for overall accesses
system.l2.overall_mshr_miss_rate::total      0.017705                       # mshr miss rate for overall accesses
system.l2.demand_avg_mshr_miss_latency::.cpu.inst 78216.257669                       # average overall mshr miss latency
system.l2.demand_avg_mshr_miss_latency::.cpu.data 79352.421856                       # average overall mshr miss latency
system.l2.demand_avg_mshr_miss_latency::total 79082.802548                       # average overall mshr miss latency
system.l2.overall_avg_mshr_miss_latency::.cpu.inst 78216.257669                       # average overall mshr miss latency
system.l2.overall_avg_mshr_miss_latency::.cpu.data 79352.421856                       # average overall mshr miss latency
system.l2.overall_avg_mshr_miss_latency::total 79082.802548                       # average overall mshr miss latency
system.l2.replacements                            256                       # number of replacements
system.l2.WritebackDirty_hits::.writebacks       304830                       # number of WritebackDirty hits
system.l2.WritebackDirty_hits::total           304830                       # number of WritebackDirty hits
system.l2.WritebackDirty_accesses::.writebacks       304830                       # number of WritebackDirty accesses(hits+misses)
system.l2.WritebackDirty_accesses::total       304830                       # number of WritebackDirty accesses(hits+misses)
system.l2.WritebackClean_hits::.writebacks          426                       # number of WritebackClean hits
system.l2.WritebackClean_hits::total              426                       # number of WritebackClean hits
system.l2.WritebackClean_accesses::.writebacks          426                       # number of WritebackClean accesses(hits+misses)
system.l2.WritebackClean_accesses::total          426                       # number of WritebackClean accesses(hits+misses)
system.l2.CleanEvict_mshr_misses::.writebacks           10                       # number of CleanEvict MSHR misses
system.l2.CleanEvict_mshr_misses::total            10                       # number of CleanEvict MSHR misses
system.l2.CleanEvict_mshr_miss_rate::.writebacks          inf                       # mshr miss rate for CleanEvict accesses
system.l2.CleanEvict_mshr_miss_rate::total          inf                       # mshr miss rate for CleanEvict accesses
system.l2.ReadExReq_hits::.cpu.data             79317                       # number of ReadExReq hits
system.l2.ReadExReq_hits::total                 79317                       # number of ReadExReq hits
system.l2.ReadExReq_misses::.cpu.data            3666                       # number of ReadExReq misses
system.l2.ReadExReq_misses::total                3666                       # number of ReadExReq misses
system.l2.ReadExReq_miss_latency::.cpu.data    363487000                       # number of ReadExReq miss cycles
system.l2.ReadExReq_miss_latency::total     363487000                       # number of ReadExReq miss cycles
system.l2.ReadExReq_accesses::.cpu.data         82983                       # number of ReadExReq accesses(hits+misses)
system.l2.ReadExReq_accesses::total             82983                       # number of ReadExReq accesses(hits+misses)
system.l2.ReadExReq_miss_rate::.cpu.data     0.044178                       # miss rate for ReadExReq accesses
system.l2.ReadExReq_miss_rate::total         0.044178                       # miss rate for ReadExReq accesses
system.l2.ReadExReq_avg_miss_latency::.cpu.data 99150.845608                       # average ReadExReq miss latency
system.l2.ReadExReq_avg_miss_latency::total 99150.845608                       # average ReadExReq miss latency
system.l2.ReadExReq_mshr_misses::.cpu.data         3666                       # number of ReadExReq MSHR misses
system.l2.ReadExReq_mshr_misses::total           3666                       # number of ReadExReq MSHR misses
system.l2.ReadExReq_mshr_miss_latency::.cpu.data    290167000                       # number of ReadExReq MSHR miss cycles
system.l2.ReadExReq_mshr_miss_latency::total    290167000                       # number of ReadExReq MSHR miss cycles
system.l2.ReadExReq_mshr_miss_rate::.cpu.data     0.044178                       # mshr miss rate for ReadExReq accesses
system.l2.ReadExReq_mshr_miss_rate::total     0.044178                       # mshr miss rate for ReadExReq accesses
system.l2.ReadExReq_avg_mshr_miss_latency::.cpu.data 79150.845608                       # average ReadExReq mshr miss latency
system.l2.ReadExReq_avg_mshr_miss_latency::total 79150.845608                       # average ReadExReq mshr miss latency
system.l2.ReadCleanReq_hits::.cpu.inst            104                       # number of ReadCleanReq hits
system.l2.ReadCleanReq_hits::total                104                       # number of ReadCleanReq hits
system.l2.ReadCleanReq_misses::.cpu.inst         1304                       # number of ReadCleanReq misses
system.l2.ReadCleanReq_misses::total             1304                       # number of ReadCleanReq misses
system.l2.ReadCleanReq_miss_latency::.cpu.inst    128074000                       # number of ReadCleanReq miss cycles
system.l2.ReadCleanReq_miss_latency::total    128074000                       # number of ReadCleanReq miss cycles
system.l2.ReadCleanReq_accesses::.cpu.inst         1408                       # number of ReadCleanReq accesses(hits+misses)
system.l2.ReadCleanReq_accesses::total           1408                       # number of ReadCleanReq accesses(hits+misses)
system.l2.ReadCleanReq_miss_rate::.cpu.inst     0.926136                       # miss rate for ReadCleanReq accesses
system.l2.ReadCleanReq_miss_rate::total      0.926136                       # miss rate for ReadCleanReq accesses
system.l2.ReadCleanReq_avg_miss_latency::.cpu.inst 98216.257669                       # average ReadCleanReq miss latency
system.l2.ReadCleanReq_avg_miss_latency::total 98216.257669                       # average ReadCleanReq miss latency
system.l2.ReadCleanReq_mshr_misses::.cpu.inst         1304                       # number of ReadCleanReq MSHR misses
system.l2.ReadCleanReq_mshr_misses::total         1304                       # number of ReadCleanReq MSHR misses
system.l2.ReadCleanReq_mshr_miss_latency::.cpu.inst    101994000                       # number of ReadCleanReq MSHR miss cycles
system.l2.ReadCleanReq_mshr_miss_latency::total    101994000                       # number of ReadCleanReq MSHR miss cycles
system.l2.ReadCleanReq_mshr_miss_rate::.cpu.inst     0.926136                       # mshr miss rate for ReadCleanReq accesses
system.l2.ReadCleanReq_mshr_miss_rate::total     0.926136                       # mshr miss rate for ReadCleanReq accesses
system.l2.ReadCleanReq_avg_mshr_miss_latency::.cpu.inst 78216.257669                       # average ReadCleanReq mshr miss latency
system.l2.ReadCleanReq_avg_mshr_miss_latency::total 78216.257669                       # average ReadCleanReq mshr miss latency
system.l2.ReadSharedReq_hits::.cpu.data        225434                       # number of ReadSharedReq hits
system.l2.ReadSharedReq_hits::total            225434                       # number of ReadSharedReq hits
system.l2.ReadSharedReq_misses::.cpu.data          531                       # number of ReadSharedReq misses
system.l2.ReadSharedReq_misses::total             531                       # number of ReadSharedReq misses
system.l2.ReadSharedReq_miss_latency::.cpu.data     53350000                       # number of ReadSharedReq miss cycles
system.l2.ReadSharedReq_miss_latency::total     53350000                       # number of ReadSharedReq miss cycles
system.l2.ReadSharedReq_accesses::.cpu.data       225965                       # number of ReadSharedReq accesses(hits+misses)
system.l2.ReadSharedReq_accesses::total        225965                       # number of ReadSharedReq accesses(hits+misses)
system.l2.ReadSharedReq_miss_rate::.cpu.data     0.002350                       # miss rate for ReadSharedReq accesses
system.l2.ReadSharedReq_miss_rate::total     0.002350                       # miss rate for ReadSharedReq accesses
system.l2.ReadSharedReq_avg_miss_latency::.cpu.data 100470.809793                       # average ReadSharedReq miss latency
system.l2.ReadSharedReq_avg_miss_latency::total 100470.809793                       # average ReadSharedReq miss latency
system.l2.ReadSharedReq_mshr_hits::.cpu.data            6                       # number of ReadSharedReq MSHR hits
system.l2.ReadSharedReq_mshr_hits::total            6                       # number of ReadSharedReq MSHR hits
system.l2.ReadSharedReq_mshr_misses::.cpu.data          525                       # number of ReadSharedReq MSHR misses
system.l2.ReadSharedReq_mshr_misses::total          525                       # number of ReadSharedReq MSHR misses
system.l2.ReadSharedReq_mshr_miss_latency::.cpu.data     42399000                       # number of ReadSharedReq MSHR miss cycles
system.l2.ReadSharedReq_mshr_miss_latency::total     42399000                       # number of ReadSharedReq MSHR miss cycles
system.l2.ReadSharedReq_mshr_miss_rate::.cpu.data     0.002323                       # mshr miss rate for ReadSharedReq accesses
system.l2.ReadSharedReq_mshr_miss_rate::total     0.002323                       # mshr miss rate for ReadSharedReq accesses
system.l2.ReadSharedReq_avg_mshr_miss_latency::.cpu.data        80760                       # average ReadSharedReq mshr miss latency
system.l2.ReadSharedReq_avg_mshr_miss_latency::total        80760                       # average ReadSharedReq mshr miss latency
system.l2.power_state.pwrStateResidencyTicks::UNDEFINED 126085401000                       # Cumulative time (in ticks) in various power states
system.l2.tags.tagsinuse                  5080.291090                       # Cycle average of tags in use
system.l2.tags.total_refs                      617653                       # Total number of references to valid blocks.
system.l2.tags.sampled_refs                      5524                       # Sample count of references to valid blocks.
system.l2.tags.avg_refs                    111.812636                       # Average number of references to valid blocks.
system.l2.tags.warmup_cycle                     87000                       # Cycle when the warmup percentage was hit.
system.l2.tags.occ_blocks::.writebacks      25.430763                       # Average occupied blocks per requestor
system.l2.tags.occ_blocks::.cpu.inst      1114.280463                       # Average occupied blocks per requestor
system.l2.tags.occ_blocks::.cpu.data      3940.579864                       # Average occupied blocks per requestor
system.l2.tags.occ_percent::.writebacks      0.003104                       # Average percentage of cache occupancy
system.l2.tags.occ_percent::.cpu.inst        0.136021                       # Average percentage of cache occupancy
system.l2.tags.occ_percent::.cpu.data        0.481028                       # Average percentage of cache occupancy
system.l2.tags.occ_percent::total            0.620153                       # Average percentage of cache occupancy
system.l2.tags.occ_task_id_blocks::1024          5268                       # Occupied blocks per task id
system.l2.tags.age_task_id_blocks_1024::4         5268                       # Occupied blocks per task id
system.l2.tags.occ_task_id_percent::1024     0.643066                       # Percentage of cache occupancy per task id
system.l2.tags.tag_accesses                   1240862                       # Number of tag accesses
system.l2.tags.data_accesses                  1240862                       # Number of data accesses
system.l2.tags.power_state.pwrStateResidencyTicks::UNDEFINED 126085401000                       # Cumulative time (in ticks) in various power states
system.mem_ctrls.avgPriority_.writebacks::samples         4.00                       # Average QoS priority value for accepted requests
system.mem_ctrls.avgPriority_.cpu.inst::samples      1304.00                       # Average QoS priority value for accepted requests
system.mem_ctrls.avgPriority_.cpu.data::samples      4190.00                       # Average QoS priority value for accepted requests
system.mem_ctrls.priorityMinLatency      0.000000018750                       # per QoS priority minimum request to response latency (s)
system.mem_ctrls.priorityMaxLatency      0.000000579500                       # per QoS priority maximum request to response latency (s)
system.mem_ctrls.numReadWriteTurnArounds            0                       # Number of turnarounds from READ to WRITE
system.mem_ctrls.numWriteReadTurnArounds            0                       # Number of turnarounds from WRITE to READ
system.mem_ctrls.numStayReadState               43373                       # Number of times bus staying in READ state
system.mem_ctrls.numStayWriteState                  0                       # Number of times bus staying in WRITE state
system.mem_ctrls.readReqs                        5495                       # Number of read requests accepted
system.mem_ctrls.writeReqs                          4                       # Number of write requests accepted
system.mem_ctrls.readBursts                      5495                       # Number of controller read bursts, including those serviced by the write queue
system.mem_ctrls.writeBursts                        4                       # Number of controller write bursts, including those merged in the write queue
system.mem_ctrls.servicedByWrQ                      1                       # Number of controller read bursts serviced by the write queue
system.mem_ctrls.mergedWrBursts                     0                       # Number of controller write bursts merged with an existing one
system.mem_ctrls.neitherReadNorWriteReqs            0                       # Number of requests that are neither read nor write
system.mem_ctrls.avgRdQLen                       1.00                       # Average read queue length when enqueuing
system.mem_ctrls.avgWrQLen                       3.60                       # Average write queue length when enqueuing
system.mem_ctrls.numRdRetry                         0                       # Number of times read queue was full causing retry
system.mem_ctrls.numWrRetry                         0                       # Number of times write queue was full causing retry
system.mem_ctrls.readPktSize::0                     0                       # Read request sizes (log2)
system.mem_ctrls.readPktSize::1                     0                       # Read request sizes (log2)
system.mem_ctrls.readPktSize::2                     0                       # Read request sizes (log2)
system.mem_ctrls.readPktSize::3                     0                       # Read request sizes (log2)
system.mem_ctrls.readPktSize::4                     0                       # Read request sizes (log2)
system.mem_ctrls.readPktSize::5                     0                       # Read request sizes (log2)
system.mem_ctrls.readPktSize::6                  5495                       # Read request sizes (log2)
system.mem_ctrls.writePktSize::0                    0                       # Write request sizes (log2)
system.mem_ctrls.writePktSize::1                    0                       # Write request sizes (log2)
[...]
system.mem_ctrls.dram.bw_write::.writebacks         2030                       # Write bandwidth from this memory (bytes/s)
system.mem_ctrls.dram.bw_write::total            2030                       # Write bandwidth from this memory (bytes/s)
system.mem_ctrls.dram.bw_total::.writebacks         2030                       # Total bandwidth to/from this memory (bytes/s)
system.mem_ctrls.dram.bw_total::.cpu.inst       661901                       # Total bandwidth to/from this memory (bytes/s)
system.mem_ctrls.dram.bw_total::.cpu.data      2127320                       # Total bandwidth to/from this memory (bytes/s)
system.mem_ctrls.dram.bw_total::total         2791251                       # Total bandwidth to/from this memory (bytes/s)
system.mem_ctrls.dram.readBursts                 5494                       # Number of DRAM read bursts
system.mem_ctrls.dram.writeBursts                   0                       # Number of DRAM write bursts
system.mem_ctrls.dram.perBankRdBursts::0          252                       # Per bank write bursts
system.mem_ctrls.dram.perBankRdBursts::1          273                       # Per bank write bursts
system.mem_ctrls.dram.perBankRdBursts::2          243                       # Per bank write bursts
system.mem_ctrls.dram.perBankRdBursts::3          403                       # Per bank write bursts
system.mem_ctrls.dram.perBankRdBursts::4          419                       # Per bank write bursts
system.mem_ctrls.dram.perBankRdBursts::5          373                       # Per bank write bursts
system.mem_ctrls.dram.perBankRdBursts::6          377                       # Per bank write bursts
system.mem_ctrls.dram.perBankRdBursts::7          401                       # Per bank write bursts
system.mem_ctrls.dram.perBankRdBursts::8          359                       # Per bank write bursts
system.mem_ctrls.dram.perBankRdBursts::9          293                       # Per bank write bursts
system.mem_ctrls.dram.perBankRdBursts::10          426                       # Per bank write bursts
system.mem_ctrls.dram.perBankRdBursts::11          288                       # Per bank write bursts
system.mem_ctrls.dram.perBankRdBursts::12          311                       # Per bank write bursts
system.mem_ctrls.dram.perBankRdBursts::13          339                       # Per bank write bursts
system.mem_ctrls.dram.perBankRdBursts::14          400                       # Per bank write bursts
system.mem_ctrls.dram.perBankRdBursts::15          337                       # Per bank write bursts
system.mem_ctrls.dram.perBankWrBursts::0            0                       # Per bank write bursts
system.mem_ctrls.dram.perBankWrBursts::1            0                       # Per bank write bursts
system.mem_ctrls.dram.perBankWrBursts::2            0                       # Per bank write bursts
system.mem_ctrls.dram.perBankWrBursts::3            0                       # Per bank write bursts
system.mem_ctrls.dram.perBankWrBursts::4            0                       # Per bank write bursts
system.mem_ctrls.dram.perBankWrBursts::5            0                       # Per bank write bursts
system.mem_ctrls.dram.perBankWrBursts::6            0                       # Per bank write bursts
system.mem_ctrls.dram.perBankWrBursts::7            0                       # Per bank write bursts
system.mem_ctrls.dram.perBankWrBursts::8            0                       # Per bank write bursts
system.mem_ctrls.dram.perBankWrBursts::9            0                       # Per bank write bursts
system.mem_ctrls.dram.perBankWrBursts::10            0                       # Per bank write bursts
system.mem_ctrls.dram.perBankWrBursts::11            0                       # Per bank write bursts
system.mem_ctrls.dram.perBankWrBursts::12            0                       # Per bank write bursts
system.mem_ctrls.dram.perBankWrBursts::13            0                       # Per bank write bursts
system.mem_ctrls.dram.perBankWrBursts::14            0                       # Per bank write bursts
system.mem_ctrls.dram.perBankWrBursts::15            0                       # Per bank write bursts
system.mem_ctrls.dram.totQLat                49506750                       # Total ticks spent queuing
system.mem_ctrls.dram.totBusLat              27470000                       # Total ticks spent in databus transfers
system.mem_ctrls.dram.totMemAccLat          152519250                       # Total ticks spent from burst creation until serviced by the DRAM
system.mem_ctrls.dram.avgQLat                 9011.06                       # Average queueing delay per DRAM burst
system.mem_ctrls.dram.avgBusLat               5000.00                       # Average bus latency per DRAM burst
system.mem_ctrls.dram.avgMemAccLat           27761.06                       # Average memory access latency per DRAM burst
system.mem_ctrls.dram.readRowHits                3907                       # Number of row buffer hits during reads
system.mem_ctrls.dram.writeRowHits                  0                       # Number of row buffer hits during writes
system.mem_ctrls.dram.readRowHitRate            71.11                       # Row buffer hit rate for reads
system.mem_ctrls.dram.writeRowHitRate             nan                       # Row buffer hit rate for writes
system.mem_ctrls.dram.bytesPerActivate::samples         1587                       # Bytes accessed per row activation
system.mem_ctrls.dram.bytesPerActivate::mean   221.560176                       # Bytes accessed per row activation
system.mem_ctrls.dram.bytesPerActivate::gmean   143.440468                       # Bytes accessed per row activation
system.mem_ctrls.dram.bytesPerActivate::stdev   259.140602                       # Bytes accessed per row activation
system.mem_ctrls.dram.bytesPerActivate::0-127          610     38.44%     38.44% # Bytes accessed per row activation
system.mem_ctrls.dram.bytesPerActivate::128-255          583     36.74%     75.17% # Bytes accessed per row activation
system.mem_ctrls.dram.bytesPerActivate::256-383          158      9.96%     85.13% # Bytes accessed per row activation
system.mem_ctrls.dram.bytesPerActivate::384-511           45      2.84%     87.96% # Bytes accessed per row activation
system.mem_ctrls.dram.bytesPerActivate::512-639           32      2.02%     89.98% # Bytes accessed per row activation
system.mem_ctrls.dram.bytesPerActivate::640-767           26      1.64%     91.62% # Bytes accessed per row activation
system.mem_ctrls.dram.bytesPerActivate::768-895           23      1.45%     93.07% # Bytes accessed per row activation
system.mem_ctrls.dram.bytesPerActivate::896-1023           12      0.76%     93.82% # Bytes accessed per row activation
system.mem_ctrls.dram.bytesPerActivate::1024-1151           98      6.18%    100.00% # Bytes accessed per row activation
system.mem_ctrls.dram.bytesPerActivate::total         1587                       # Bytes accessed per row activation
system.mem_ctrls.dram.bytesRead                351616                       # Total number of bytes read from DRAM
system.mem_ctrls.dram.bytesWritten                  0                       # Total number of bytes written to DRAM
system.mem_ctrls.dram.avgRdBW                2.788713                       # Average DRAM read bandwidth in MiBytes/s
system.mem_ctrls.dram.avgWrBW                       0                       # Average DRAM write bandwidth in MiBytes/s
system.mem_ctrls.dram.peakBW                 12800.00                       # Theoretical peak bandwidth in MiByte/s
system.mem_ctrls.dram.busUtil                    0.02                       # Data bus utilization in percentage
system.mem_ctrls.dram.busUtilRead                0.02                       # Data bus utilization in percentage for reads
system.mem_ctrls.dram.busUtilWrite               0.00                       # Data bus utilization in percentage for writes
system.mem_ctrls.dram.pageHitRate               71.11                       # Row buffer hit rate, read and write combined
system.mem_ctrls.dram.power_state.pwrStateResidencyTicks::UNDEFINED 126085401000                       # Cumulative time (in ticks) in various power states
system.mem_ctrls.dram.rank0.actEnergy         5869080                       # Energy for activate commands per rank (pJ)
system.mem_ctrls.dram.rank0.preEnergy         3119490                       # Energy for precharge commands per rank (pJ)
system.mem_ctrls.dram.rank0.readEnergy       19570740                       # Energy for read commands per rank (pJ)
system.mem_ctrls.dram.rank0.writeEnergy             0                       # Energy for write commands per rank (pJ)
system.mem_ctrls.dram.rank0.refreshEnergy 9952865520.000002                       # Energy for refresh commands per rank (pJ)
system.mem_ctrls.dram.rank0.actBackEnergy   2936031240                       # Energy for active background per rank (pJ)
system.mem_ctrls.dram.rank0.preBackEnergy  45944346720                       # Energy for precharge background per rank (pJ)
system.mem_ctrls.dram.rank0.actPowerDownEnergy            0                       # Energy for active power-down per rank (pJ)
system.mem_ctrls.dram.rank0.prePowerDownEnergy            0                       # Energy for precharge power-down per rank (pJ)
system.mem_ctrls.dram.rank0.selfRefreshEnergy            0                       # Energy for self refresh per rank (pJ)
system.mem_ctrls.dram.rank0.totalEnergy   58861802790                       # Total energy per rank (pJ)
system.mem_ctrls.dram.rank0.averagePower   466.840747                       # Core power per rank (mW)
system.mem_ctrls.dram.rank0.totalIdleTime            0                       # Total Idle time Per DRAM Rank
system.mem_ctrls.dram.rank0.pwrStateTime::IDLE 119417291750                       # Time in different power states
system.mem_ctrls.dram.rank0.pwrStateTime::REF   4210180000                       # Time in different power states
system.mem_ctrls.dram.rank0.pwrStateTime::SREF            0                       # Time in different power states
system.mem_ctrls.dram.rank0.pwrStateTime::PRE_PDN            0                       # Time in different power states
system.mem_ctrls.dram.rank0.pwrStateTime::ACT   2457929250                       # Time in different power states
system.mem_ctrls.dram.rank0.pwrStateTime::ACT_PDN            0                       # Time in different power states
system.mem_ctrls.dram.rank1.actEnergy         5462100                       # Energy for activate commands per rank (pJ)
system.mem_ctrls.dram.rank1.preEnergy         2903175                       # Energy for precharge commands per rank (pJ)
system.mem_ctrls.dram.rank1.readEnergy       19656420                       # Energy for read commands per rank (pJ)
system.mem_ctrls.dram.rank1.writeEnergy             0                       # Energy for write commands per rank (pJ)
system.mem_ctrls.dram.rank1.refreshEnergy 9952865520.000002                       # Energy for refresh commands per rank (pJ)
system.mem_ctrls.dram.rank1.actBackEnergy   2851577760                       # Energy for active background per rank (pJ)
system.mem_ctrls.dram.rank1.preBackEnergy  46015465440                       # Energy for precharge background per rank (pJ)
system.mem_ctrls.dram.rank1.actPowerDownEnergy            0                       # Energy for active power-down per rank (pJ)
system.mem_ctrls.dram.rank1.prePowerDownEnergy            0                       # Energy for precharge power-down per rank (pJ)
system.mem_ctrls.dram.rank1.selfRefreshEnergy            0                       # Energy for self refresh per rank (pJ)
system.mem_ctrls.dram.rank1.totalEnergy   58847930415                       # Total energy per rank (pJ)
system.mem_ctrls.dram.rank1.averagePower   466.730723                       # Core power per rank (mW)
system.mem_ctrls.dram.rank1.totalIdleTime            0                       # Total Idle time Per DRAM Rank
system.mem_ctrls.dram.rank1.pwrStateTime::IDLE 119602821750                       # Time in different power states
system.mem_ctrls.dram.rank1.pwrStateTime::REF   4210180000                       # Time in different power states
system.mem_ctrls.dram.rank1.pwrStateTime::SREF            0                       # Time in different power states
system.mem_ctrls.dram.rank1.pwrStateTime::PRE_PDN            0                       # Time in different power states
system.mem_ctrls.dram.rank1.pwrStateTime::ACT   2272399250                       # Time in different power states
system.mem_ctrls.dram.rank1.pwrStateTime::ACT_PDN            0                       # Time in different power states
system.mem_ctrls.power_state.pwrStateResidencyTicks::UNDEFINED 126085401000                       # Cumulative time (in ticks) in various power states
system.membus.trans_dist::ReadResp               1829                       # Transaction distribution
system.membus.trans_dist::WritebackDirty            4                       # Transaction distribution
system.membus.trans_dist::CleanEvict               72                       # Transaction distribution
system.membus.trans_dist::ReadExReq              3666                       # Transaction distribution
system.membus.trans_dist::ReadExResp             3666                       # Transaction distribution
system.membus.trans_dist::ReadSharedReq          1829                       # Transaction distribution
system.membus.pkt_count_system.l2.mem_side_port::system.mem_ctrls.port        11066                       # Packet count per connected requestor and responder (bytes)
system.membus.pkt_count::total                  11066                       # Packet count per connected requestor and responder (bytes)
system.membus.pkt_size_system.l2.mem_side_port::system.mem_ctrls.port       351936                       # Cumulative packet size per connected requestor and responder (bytes)
system.membus.pkt_size::total                  351936                       # Cumulative packet size per connected requestor and responder (bytes)
system.membus.snoops                                0                       # Total snoops (count)
system.membus.snoopTraffic                          0                       # Total snoop traffic (bytes)
system.membus.snoop_fanout::samples              5495                       # Request fanout histogram
system.membus.snoop_fanout::mean                    0                       # Request fanout histogram
system.membus.snoop_fanout::stdev                   0                       # Request fanout histogram
system.membus.snoop_fanout::underflows              0      0.00%      0.00% # Request fanout histogram
system.membus.snoop_fanout::0                    5495    100.00%    100.00% # Request fanout histogram
system.membus.snoop_fanout::1                       0      0.00%    100.00% # Request fanout histogram
system.membus.snoop_fanout::overflows               0      0.00%    100.00% # Request fanout histogram
system.membus.snoop_fanout::min_value               0                       # Request fanout histogram
system.membus.snoop_fanout::max_value               0                       # Request fanout histogram
system.membus.snoop_fanout::total                5495                       # Request fanout histogram
system.membus.power_state.pwrStateResidencyTicks::UNDEFINED 126085401000                       # Cumulative time (in ticks) in various power states
system.membus.reqLayer0.occupancy             5587000                       # Layer occupancy (ticks)
system.membus.reqLayer0.utilization               0.0                       # Layer utilization (%)
system.membus.respLayer1.occupancy           29228000                       # Layer occupancy (ticks)
system.membus.respLayer1.utilization              0.0                       # Layer utilization (%)
system.tol2bus.trans_dist::ReadResp            227373                       # Transaction distribution
system.tol2bus.trans_dist::WritebackDirty       304834                       # Transaction distribution
system.tol2bus.trans_dist::WritebackClean          436                       # Transaction distribution
system.tol2bus.trans_dist::CleanEvict            3858                       # Transaction distribution
system.tol2bus.trans_dist::ReadExReq            82983                       # Transaction distribution
system.tol2bus.trans_dist::ReadExResp           82983                       # Transaction distribution
system.tol2bus.trans_dist::ReadCleanReq          1408                       # Transaction distribution
system.tol2bus.trans_dist::ReadSharedReq       225965                       # Transaction distribution
system.tol2bus.pkt_count_system.cpu.icache.mem_side_port::system.l2.cpu_side_port         3252                       # Packet count per connected requestor and responder (bytes)
system.tol2bus.pkt_count_system.cpu.dcache.mem_side_port::system.l2.cpu_side_port       926332                       # Packet count per connected requestor and responder (bytes)
system.tol2bus.pkt_count::total                929584                       # Packet count per connected requestor and responder (bytes)
system.tol2bus.pkt_size_system.cpu.icache.mem_side_port::system.l2.cpu_side_port       118016                       # Cumulative packet size per connected requestor and responder (bytes)
system.tol2bus.pkt_size_system.cpu.dcache.mem_side_port::system.l2.cpu_side_port     39281792                       # Cumulative packet size per connected requestor and responder (bytes)
system.tol2bus.pkt_size::total               39399808                       # Cumulative packet size per connected requestor and responder (bytes)
system.tol2bus.snoops                             256                       # Total snoops (count)
system.tol2bus.snoopTraffic                       256                       # Total snoop traffic (bytes)
system.tol2bus.snoop_fanout::samples           310612                       # Request fanout histogram
system.tol2bus.snoop_fanout::mean            0.005640                       # Request fanout histogram
system.tol2bus.snoop_fanout::stdev           0.074891                       # Request fanout histogram
system.tol2bus.snoop_fanout::underflows             0      0.00%      0.00% # Request fanout histogram
system.tol2bus.snoop_fanout::0                 308860     99.44%     99.44% # Request fanout histogram
system.tol2bus.snoop_fanout::1                   1752      0.56%    100.00% # Request fanout histogram
system.tol2bus.snoop_fanout::2                      0      0.00%    100.00% # Request fanout histogram
system.tol2bus.snoop_fanout::overflows              0      0.00%    100.00% # Request fanout histogram
system.tol2bus.snoop_fanout::min_value              0                       # Request fanout histogram
system.tol2bus.snoop_fanout::max_value              1                       # Request fanout histogram
system.tol2bus.snoop_fanout::total             310612                       # Request fanout histogram
system.tol2bus.power_state.pwrStateResidencyTicks::UNDEFINED 126085401000                       # Cumulative time (in ticks) in various power states
system.tol2bus.reqLayer0.occupancy         1229760000                       # Layer occupancy (ticks)
system.tol2bus.reqLayer0.utilization              1.0                       # Layer utilization (%)
system.tol2bus.respLayer0.occupancy           4224000                       # Layer occupancy (ticks)
system.tol2bus.respLayer0.utilization             0.0                       # Layer utilization (%)
system.tol2bus.respLayer1.occupancy         926849994                       # Layer occupancy (ticks)
system.tol2bus.respLayer1.utilization             0.7                       # Layer utilization (%)
system.voltage_domain.voltage                       1                       # Voltage in Volts

---------- End Simulation Statistics   ----------
