
---------- Begin Simulation Statistics ----------
final_tick                               195888703000                       # Number of ticks from beginning of simulation (restored from checkpoints and never reset)
host_inst_rate                                 357293                       # Simulator instruction rate (inst/s)
host_mem_usage                                 661120                       # Number of bytes of host memory used
host_op_rate                                   390992                       # Simulator op (including micro ops) rate (op/s)
host_seconds                                   279.88                       # Real time elapsed on the host
host_tick_rate                              699896222                       # Simulator tick rate (ticks/s)
sim_freq                                 1000000000000                       # Frequency of simulated ticks
sim_insts                                   100000000                       # Number of instructions simulated
sim_ops                                     109431833                       # Number of ops (including micro ops) simulated
sim_seconds                                  0.195889                       # Number of seconds simulated
sim_ticks                                195888703000                       # Number of ticks simulated
system.cpu.committedInsts                   100000000                       # Number of instructions committed
system.cpu.committedOps                     109431833                       # Number of ops (including micro ops) committed
system.cpu.cpi                               1.958887                       # CPI: cycles per instruction
system.cpu.discardedOps                        683886                       # Number of ops (including micro ops) which were discarded before commit
system.cpu.idleCycles                        57720353                       # Total number of cycles that the object has spent stopped
system.cpu.ipc                               0.510494                       # IPC: instructions per cycle
system.cpu.numCycles                        195888703                       # number of cpu cycles simulated
system.cpu.numFetchSuspends                         0                       # Number of times Execute suspended instruction fetching
system.cpu.numWorkItemsCompleted                    0                       # number of work items this cpu completed
system.cpu.numWorkItemsStarted                      0                       # number of work items this cpu started
system.cpu.op_class_0::No_OpClass                   0      0.00%      0.00% # Class of committed instruction
system.cpu.op_class_0::IntAlu                72954902     66.67%     66.67% # Class of committed instruction
system.cpu.op_class_0::IntMult                 568365      0.52%     67.19% # Class of committed instruction
system.cpu.op_class_0::IntDiv                       0      0.00%     67.19% # Class of committed instruction
system.cpu.op_class_0::FloatAdd                     0      0.00%     67.19% # Class of committed instruction
system.cpu.op_class_0::FloatCmp                     0      0.00%     67.19% # Class of committed instruction
system.cpu.op_class_0::FloatCvt                     0      0.00%     67.19% # Class of committed instruction
system.cpu.op_class_0::FloatMult                    0      0.00%     67.19% # Class of committed instruction
system.cpu.op_class_0::FloatMultAcc                 0      0.00%     67.19% # Class of committed instruction
system.cpu.op_class_0::FloatDiv                     0      0.00%     67.19% # Class of committed instruction
system.cpu.op_class_0::FloatMisc                    0      0.00%     67.19% # Class of committed instruction
system.cpu.op_class_0::FloatSqrt                    0      0.00%     67.19% # Class of committed instruction
system.cpu.op_class_0::SimdAdd                 241244      0.22%     67.41% # Class of committed instruction
system.cpu.op_class_0::SimdAddAcc                   0      0.00%     67.41% # Class of committed instruction
system.cpu.op_class_0::SimdAlu                 154714      0.14%     67.55% # Class of committed instruction
system.cpu.op_class_0::SimdCmp                 120622      0.11%     67.66% # Class of committed instruction
system.cpu.op_class_0::SimdCvt                      0      0.00%     67.66% # Class of committed instruction
system.cpu.op_class_0::SimdMisc                 44543      0.04%     67.70% # Class of committed instruction
system.cpu.op_class_0::SimdMult                     0      0.00%     67.70% # Class of committed instruction
system.cpu.op_class_0::SimdMultAcc                  0      0.00%     67.70% # Class of committed instruction
system.cpu.op_class_0::SimdShift                    0      0.00%     67.70% # Class of committed instruction
system.cpu.op_class_0::SimdShiftAcc                 0      0.00%     67.70% # Class of committed instruction
system.cpu.op_class_0::SimdDiv                      0      0.00%     67.70% # Class of committed instruction
system.cpu.op_class_0::SimdSqrt                     0      0.00%     67.70% # Class of committed instruction
system.cpu.op_class_0::SimdFloatAdd                 0      0.00%     67.70% # Class of committed instruction
system.cpu.op_class_0::SimdFloatAlu                 0      0.00%     67.70% # Class of committed instruction
system.cpu.op_class_0::SimdFloatCmp                 0      0.00%     67.70% # Class of committed instruction
system.cpu.op_class_0::SimdFloatCvt                 0      0.00%     67.70% # Class of committed instruction
system.cpu.op_class_0::SimdFloatDiv                 0      0.00%     67.70% # Class of committed instruction
system.cpu.op_class_0::SimdFloatMisc           166460      0.15%     67.85% # Class of committed instruction
system.cpu.op_class_0::SimdFloatMult                0      0.00%     67.85% # Class of committed instruction
system.cpu.op_class_0::SimdFloatMultAcc             0      0.00%     67.85% # Class of committed instruction
system.cpu.op_class_0::SimdFloatSqrt                0      0.00%     67.85% # Class of committed instruction
system.cpu.op_class_0::SimdReduceAdd                0      0.00%     67.85% # Class of committed instruction
system.cpu.op_class_0::SimdReduceAlu                0      0.00%     67.85% # Class of committed instruction
system.cpu.op_class_0::SimdReduceCmp                0      0.00%     67.85% # Class of committed instruction
system.cpu.op_class_0::SimdFloatReduceAdd            0      0.00%     67.85% # Class of committed instruction
system.cpu.op_class_0::SimdFloatReduceCmp            0      0.00%     67.85% # Class of committed instruction
system.cpu.op_class_0::SimdAes                      0      0.00%     67.85% # Class of committed instruction
system.cpu.op_class_0::SimdAesMix                   0      0.00%     67.85% # Class of committed instruction
system.cpu.op_class_0::SimdSha1Hash                 0      0.00%     67.85% # Class of committed instruction
system.cpu.op_class_0::SimdSha1Hash2                0      0.00%     67.85% # Class of committed instruction
system.cpu.op_class_0::SimdSha256Hash               0      0.00%     67.85% # Class of committed instruction
system.cpu.op_class_0::SimdSha256Hash2              0      0.00%     67.85% # Class of committed instruction
system.cpu.op_class_0::SimdShaSigma2                0      0.00%     67.85% # Class of committed instruction
system.cpu.op_class_0::SimdShaSigma3                0      0.00%     67.85% # Class of committed instruction
system.cpu.op_class_0::SimdPredAlu                  0      0.00%     67.85% # Class of committed instruction
system.cpu.op_class_0::MemRead               20646336     18.87%     86.72% # Class of committed instruction
system.cpu.op_class_0::MemWrite              14534647     13.28%    100.00% # Class of committed instruction
system.cpu.op_class_0::FloatMemRead                 0      0.00%    100.00% # Class of committed instruction
system.cpu.op_class_0::FloatMemWrite                0      0.00%    100.00% # Class of committed instruction
system.cpu.op_class_0::IprAccess                    0      0.00%    100.00% # Class of committed instruction
system.cpu.op_class_0::InstPrefetch                 0      0.00%    100.00% # Class of committed instruction
system.cpu.op_class_0::total                109431833                       # Class of committed instruction
system.cpu.tickCycles                       138168350                       # Number of cycles that the object actually ticked
system.cpu.workload.numSyscalls                    86                       # Number of system calls
system.membus.snoop_filter.hit_multi_requests            0                       # Number of requests hitting in the snoop filter with multiple (>1) holders of the requested data.
system.membus.snoop_filter.hit_multi_snoops            0                       # Number of snoops hitting in the snoop filter with multiple (>1) holders of the requested data.
system.membus.snoop_filter.hit_single_requests        38533                       # Number of requests hitting in the snoop filter with a single holder of the requested data.
system.membus.snoop_filter.hit_single_snoops            0                       # Number of snoops hitting in the snoop filter with a single holder of the requested data.
system.membus.snoop_filter.tot_requests         85347                       # Total number of requests made to the snoop filter.
system.membus.snoop_filter.tot_snoops               0                       # Total number of snoops made to the snoop filter.
system.tol2bus.snoop_filter.hit_multi_requests       255447                       # Number of requests hitting in the snoop filter with multiple (>1) holders of the requested data.
system.tol2bus.snoop_filter.hit_multi_snoops            0                       # Number of snoops hitting in the snoop filter with multiple (>1) holders of the requested data.
system.tol2bus.snoop_filter.hit_single_requests      3858021                       # Number of requests hitting in the snoop filter with a single holder of the requested data.
system.tol2bus.snoop_filter.hit_single_snoops          925                       # Number of snoops hitting in the snoop filter with a single holder of the requested data.
system.tol2bus.snoop_filter.tot_requests      7717190                       # Total number of requests made to the snoop filter.
system.tol2bus.snoop_filter.tot_snoops            925                       # Total number of snoops made to the snoop filter.
system.clk_domain.clock                          1000                       # Clock period in ticks
system.cpu.branchPred.lookups                20396074                       # Number of BP lookups
system.cpu.branchPred.condPredicted          16337084                       # Number of conditional branches predicted
system.cpu.branchPred.condIncorrect            142863                       # Number of conditional branches incorrect
system.cpu.branchPred.BTBLookups              8777997                       # Number of BTB lookups
system.cpu.branchPred.BTBHits                 8687398                       # Number of BTB hits
system.cpu.branchPred.BTBHitPct             98.967885                       # BTB Hit Percentage
system.cpu.branchPred.RASUsed                 1048846                       # Number of times the RAS was used to get a target.
system.cpu.branchPred.RASIncorrect                312                       # Number of incorrect RAS predictions.
system.cpu.branchPred.indirectLookups          433976                       # Number of indirect predictor lookups.
system.cpu.branchPred.indirectHits             300038                       # Number of indirect target hits.
system.cpu.branchPred.indirectMisses           133938                       # Number of indirect misses.
system.cpu.branchPred.indirectMispredicted         1040                       # Number of mispredicted indirect branches.
system.cpu.dcache.demand_hits::.cpu.data     35634430                       # number of demand (read+write) hits
system.cpu.dcache.demand_hits::total         35634430                       # number of demand (read+write) hits
system.cpu.dcache.overall_hits::.cpu.data     35637741                       # number of overall hits
system.cpu.dcache.overall_hits::total        35637741                       # number of overall hits
system.cpu.dcache.demand_misses::.cpu.data        97327                       # number of demand (read+write) misses
system.cpu.dcache.demand_misses::total          97327                       # number of demand (read+write) misses
system.cpu.dcache.overall_misses::.cpu.data        97389                       # number of overall misses
system.cpu.dcache.overall_misses::total         97389                       # number of overall misses
system.cpu.dcache.demand_miss_latency::.cpu.data   7265976000                       # number of demand (read+write) miss cycles
system.cpu.dcache.demand_miss_latency::total   7265976000                       # number of demand (read+write) miss cycles
system.cpu.dcache.overall_miss_latency::.cpu.data   7265976000                       # number of overall miss cycles
system.cpu.dcache.overall_miss_latency::total   7265976000                       # number of overall miss cycles
system.cpu.dcache.demand_accesses::.cpu.data     35731757                       # number of demand (read+write) accesses
system.cpu.dcache.demand_accesses::total     35731757                       # number of demand (read+write) accesses
system.cpu.dcache.overall_accesses::.cpu.data     35735130                       # number of overall (read+write) accesses
system.cpu.dcache.overall_accesses::total     35735130                       # number of overall (read+write) accesses
system.cpu.dcache.demand_miss_rate::.cpu.data     0.002724                       # miss rate for demand accesses
system.cpu.dcache.demand_miss_rate::total     0.002724                       # miss rate for demand accesses
system.cpu.dcache.overall_miss_rate::.cpu.data     0.002725                       # miss rate for overall accesses
system.cpu.dcache.overall_miss_rate::total     0.002725                       # miss rate for overall accesses
system.cpu.dcache.demand_avg_miss_latency::.cpu.data 74655.296064                       # average overall miss latency
system.cpu.dcache.demand_avg_miss_latency::total 74655.296064                       # average overall miss latency
system.cpu.dcache.overall_avg_miss_latency::.cpu.data 74607.768845                       # average overall miss latency
system.cpu.dcache.overall_avg_miss_latency::total 74607.768845                       # average overall miss latency
system.cpu.dcache.blocked_cycles::no_mshrs            0                       # number of cycles access was blocked
system.cpu.dcache.blocked_cycles::no_targets            0                       # number of cycles access was blocked
system.cpu.dcache.blocked::no_mshrs                 0                       # number of cycles access was blocked
system.cpu.dcache.blocked::no_targets               0                       # number of cycles access was blocked
system.cpu.dcache.avg_blocked_cycles::no_mshrs          nan                       # average number of cycles each access was blocked
system.cpu.dcache.avg_blocked_cycles::no_targets          nan                       # average number of cycles each access was blocked
system.cpu.dcache.writebacks::.writebacks        60114                       # number of writebacks
system.cpu.dcache.writebacks::total             60114                       # number of writebacks
system.cpu.dcache.demand_mshr_hits::.cpu.data        25659                       # number of demand (read+write) MSHR hits
system.cpu.dcache.demand_mshr_hits::total        25659                       # number of demand (read+write) MSHR hits
system.cpu.dcache.overall_mshr_hits::.cpu.data        25659                       # number of overall MSHR hits
system.cpu.dcache.overall_mshr_hits::total        25659                       # number of overall MSHR hits
system.cpu.dcache.demand_mshr_misses::.cpu.data        71668                       # number of demand (read+write) MSHR misses
system.cpu.dcache.demand_mshr_misses::total        71668                       # number of demand (read+write) MSHR misses
system.cpu.dcache.overall_mshr_misses::.cpu.data        71724                       # number of overall MSHR misses
system.cpu.dcache.overall_mshr_misses::total        71724                       # number of overall MSHR misses
system.cpu.dcache.demand_mshr_miss_latency::.cpu.data   5646614000                       # number of demand (read+write) MSHR miss cycles
system.cpu.dcache.demand_mshr_miss_latency::total   5646614000                       # number of demand (read+write) MSHR miss cycles
system.cpu.dcache.overall_mshr_miss_latency::.cpu.data   5649493000                       # number of overall MSHR miss cycles
system.cpu.dcache.overall_mshr_miss_latency::total   5649493000                       # number of overall MSHR miss cycles
system.cpu.dcache.demand_mshr_miss_rate::.cpu.data     0.002006                       # mshr miss rate for demand accesses
system.cpu.dcache.demand_mshr_miss_rate::total     0.002006                       # mshr miss rate for demand accesses
system.cpu.dcache.overall_mshr_miss_rate::.cpu.data     0.002007                       # mshr miss rate for overall accesses
system.cpu.dcache.overall_mshr_miss_rate::total     0.002007                       # mshr miss rate for overall accesses
system.cpu.dcache.demand_avg_mshr_miss_latency::.cpu.data 78788.496958                       # average overall mshr miss latency
system.cpu.dcache.demand_avg_mshr_miss_latency::total 78788.496958                       # average overall mshr miss latency
system.cpu.dcache.overall_avg_mshr_miss_latency::.cpu.data 78767.121187                       # average overall mshr miss latency
system.cpu.dcache.overall_avg_mshr_miss_latency::total 78767.121187                       # average overall mshr miss latency
system.cpu.dcache.replacements                  70701                       # number of replacements
system.cpu.dcache.ReadReq_hits::.cpu.data     21442500                       # number of ReadReq hits
system.cpu.dcache.ReadReq_hits::total        21442500                       # number of ReadReq hits
system.cpu.dcache.ReadReq_misses::.cpu.data        34662                       # number of ReadReq misses
system.cpu.dcache.ReadReq_misses::total         34662                       # number of ReadReq misses
system.cpu.dcache.ReadReq_miss_latency::.cpu.data   1616320000                       # number of ReadReq miss cycles
system.cpu.dcache.ReadReq_miss_latency::total   1616320000                       # number of ReadReq miss cycles
system.cpu.dcache.ReadReq_accesses::.cpu.data     21477162                       # number of ReadReq accesses(hits+misses)
system.cpu.dcache.ReadReq_accesses::total     21477162                       # number of ReadReq accesses(hits+misses)
system.cpu.dcache.ReadReq_miss_rate::.cpu.data     0.001614                       # miss rate for ReadReq accesses
system.cpu.dcache.ReadReq_miss_rate::total     0.001614                       # miss rate for ReadReq accesses
system.cpu.dcache.ReadReq_avg_miss_latency::.cpu.data 46630.892620                       # average ReadReq miss latency
system.cpu.dcache.ReadReq_avg_miss_latency::total 46630.892620                       # average ReadReq miss latency
system.cpu.dcache.ReadReq_mshr_hits::.cpu.data         6151                       # number of ReadReq MSHR hits
system.cpu.dcache.ReadReq_mshr_hits::total         6151                       # number of ReadReq MSHR hits
system.cpu.dcache.ReadReq_mshr_misses::.cpu.data        28511                       # number of ReadReq MSHR misses
system.cpu.dcache.ReadReq_mshr_misses::total        28511                       # number of ReadReq MSHR misses
system.cpu.dcache.ReadReq_mshr_miss_latency::.cpu.data   1357357000                       # number of ReadReq MSHR miss cycles
system.cpu.dcache.ReadReq_mshr_miss_latency::total   1357357000                       # number of ReadReq MSHR miss cycles
system.cpu.dcache.ReadReq_mshr_miss_rate::.cpu.data     0.001328                       # mshr miss rate for ReadReq accesses
system.cpu.dcache.ReadReq_mshr_miss_rate::total     0.001328                       # mshr miss rate for ReadReq accesses
system.cpu.dcache.ReadReq_avg_mshr_miss_latency::.cpu.data 47608.186314                       # average ReadReq mshr miss latency
system.cpu.dcache.ReadReq_avg_mshr_miss_latency::total 47608.186314                       # average ReadReq mshr miss latency
system.cpu.dcache.WriteReq_hits::.cpu.data     14191930                       # number of WriteReq hits
system.cpu.dcache.WriteReq_hits::total       14191930                       # number of WriteReq hits
system.cpu.dcache.WriteReq_misses::.cpu.data        62665                       # number of WriteReq misses
system.cpu.dcache.WriteReq_misses::total        62665                       # number of WriteReq misses
system.cpu.dcache.WriteReq_miss_latency::.cpu.data   5649656000                       # number of WriteReq miss cycles
system.cpu.dcache.WriteReq_miss_latency::total   5649656000                       # number of WriteReq miss cycles
system.cpu.dcache.WriteReq_accesses::.cpu.data     14254595                       # number of WriteReq accesses(hits+misses)
system.cpu.dcache.WriteReq_accesses::total     14254595                       # number of WriteReq accesses(hits+misses)
system.cpu.dcache.WriteReq_miss_rate::.cpu.data     0.004396                       # miss rate for WriteReq accesses
system.cpu.dcache.WriteReq_miss_rate::total     0.004396                       # miss rate for WriteReq accesses
system.cpu.dcache.WriteReq_avg_miss_latency::.cpu.data 90156.482885                       # average WriteReq miss latency
system.cpu.dcache.WriteReq_avg_miss_latency::total 90156.482885                       # average WriteReq miss latency
system.cpu.dcache.WriteReq_mshr_hits::.cpu.data        19508                       # number of WriteReq MSHR hits
system.cpu.dcache.WriteReq_mshr_hits::total        19508                       # number of WriteReq MSHR hits
system.cpu.dcache.WriteReq_mshr_misses::.cpu.data        43157                       # number of WriteReq MSHR misses
system.cpu.dcache.WriteReq_mshr_misses::total        43157                       # number of WriteReq MSHR misses
system.cpu.dcache.WriteReq_mshr_miss_latency::.cpu.data   4289257000                       # number of WriteReq MSHR miss cycles
system.cpu.dcache.WriteReq_mshr_miss_latency::total   4289257000                       # number of WriteReq MSHR miss cycles
system.cpu.dcache.WriteReq_mshr_miss_rate::.cpu.data     0.003028                       # mshr miss rate for WriteReq accesses
system.cpu.dcache.WriteReq_mshr_miss_rate::total     0.003028                       # mshr miss rate for WriteReq accesses
system.cpu.dcache.WriteReq_avg_mshr_miss_latency::.cpu.data 99387.283639                       # average WriteReq mshr miss latency
system.cpu.dcache.WriteReq_avg_mshr_miss_latency::total 99387.283639                       # average WriteReq mshr miss latency
system.cpu.dcache.SoftPFReq_hits::.cpu.data         3311                       # number of SoftPFReq hits
system.cpu.dcache.SoftPFReq_hits::total          3311                       # number of SoftPFReq hits
system.cpu.dcache.SoftPFReq_misses::.cpu.data           62                       # number of SoftPFReq misses
system.cpu.dcache.SoftPFReq_misses::total           62                       # number of SoftPFReq misses
system.cpu.dcache.SoftPFReq_accesses::.cpu.data         3373                       # number of SoftPFReq accesses(hits+misses)
system.cpu.dcache.SoftPFReq_accesses::total         3373                       # number of SoftPFReq accesses(hits+misses)
system.cpu.dcache.SoftPFReq_miss_rate::.cpu.data     0.018381                       # miss rate for SoftPFReq accesses
system.cpu.dcache.SoftPFReq_miss_rate::total     0.018381                       # miss rate for SoftPFReq accesses
system.cpu.dcache.SoftPFReq_mshr_misses::.cpu.data           56                       # number of SoftPFReq MSHR misses
system.cpu.dcache.SoftPFReq_mshr_misses::total           56                       # number of SoftPFReq MSHR misses
system.cpu.dcache.SoftPFReq_mshr_miss_latency::.cpu.data      2879000                       # number of SoftPFReq MSHR miss cycles
system.cpu.dcache.SoftPFReq_mshr_miss_latency::total      2879000                       # number of SoftPFReq MSHR miss cycles
system.cpu.dcache.SoftPFReq_mshr_miss_rate::.cpu.data     0.016602                       # mshr miss rate for SoftPFReq accesses
system.cpu.dcache.SoftPFReq_mshr_miss_rate::total     0.016602                       # mshr miss rate for SoftPFReq accesses
system.cpu.dcache.SoftPFReq_avg_mshr_miss_latency::.cpu.data 51410.714286                       # average SoftPFReq mshr miss latency
system.cpu.dcache.SoftPFReq_avg_mshr_miss_latency::total 51410.714286                       # average SoftPFReq mshr miss latency
system.cpu.dcache.LoadLockedReq_hits::.cpu.data        89080                       # number of LoadLockedReq hits
system.cpu.dcache.LoadLockedReq_hits::total        89080                       # number of LoadLockedReq hits
system.cpu.dcache.LoadLockedReq_misses::.cpu.data            1                       # number of LoadLockedReq misses
system.cpu.dcache.LoadLockedReq_misses::total            1                       # number of LoadLockedReq misses
system.cpu.dcache.LoadLockedReq_miss_latency::.cpu.data        26000                       # number of LoadLockedReq miss cycles
system.cpu.dcache.LoadLockedReq_miss_latency::total        26000                       # number of LoadLockedReq miss cycles
system.cpu.dcache.LoadLockedReq_accesses::.cpu.data        89081                       # number of LoadLockedReq accesses(hits+misses)
system.cpu.dcache.LoadLockedReq_accesses::total        89081                       # number of LoadLockedReq accesses(hits+misses)
system.cpu.dcache.LoadLockedReq_miss_rate::.cpu.data     0.000011                       # miss rate for LoadLockedReq accesses
system.cpu.dcache.LoadLockedReq_miss_rate::total     0.000011                       # miss rate for LoadLockedReq accesses
system.cpu.dcache.LoadLockedReq_avg_miss_latency::.cpu.data        26000                       # average LoadLockedReq miss latency
system.cpu.dcache.LoadLockedReq_avg_miss_latency::total        26000                       # average LoadLockedReq miss latency
system.cpu.dcache.LoadLockedReq_mshr_misses::.cpu.data            1                       # number of LoadLockedReq MSHR misses
system.cpu.dcache.LoadLockedReq_mshr_misses::total            1                       # number of LoadLockedReq MSHR misses
system.cpu.dcache.LoadLockedReq_mshr_miss_latency::.cpu.data        24000                       # number of LoadLockedReq MSHR miss cycles
system.cpu.dcache.LoadLockedReq_mshr_miss_latency::total        24000                       # number of LoadLockedReq MSHR miss cycles
system.cpu.dcache.LoadLockedReq_mshr_miss_rate::.cpu.data     0.000011                       # mshr miss rate for LoadLockedReq accesses
system.cpu.dcache.LoadLockedReq_mshr_miss_rate::total     0.000011                       # mshr miss rate for LoadLockedReq accesses
system.cpu.dcache.LoadLockedReq_avg_mshr_miss_latency::.cpu.data        24000                       # average LoadLockedReq mshr miss latency
system.cpu.dcache.LoadLockedReq_avg_mshr_miss_latency::total        24000                       # average LoadLockedReq mshr miss latency
system.cpu.dcache.StoreCondReq_hits::.cpu.data        89080                       # number of StoreCondReq hits
system.cpu.dcache.StoreCondReq_hits::total        89080                       # number of StoreCondReq hits
system.cpu.dcache.StoreCondReq_accesses::.cpu.data        89080                       # number of StoreCondReq accesses(hits+misses)
system.cpu.dcache.StoreCondReq_accesses::total        89080                       # number of StoreCondReq accesses(hits+misses)
system.cpu.dcache.power_state.pwrStateResidencyTicks::UNDEFINED 195888703000                       # Cumulative time (in ticks) in various power states
system.cpu.dcache.tags.tagsinuse          1020.989978                       # Cycle average of tags in use
system.cpu.dcache.tags.total_refs            35887626                       # Total number of references to valid blocks.
system.cpu.dcache.tags.sampled_refs             71725                       # Sample count of references to valid blocks.
system.cpu.dcache.tags.avg_refs            500.350310                       # Average number of references to valid blocks.
system.cpu.dcache.tags.warmup_cycle            240000                       # Cycle when the warmup percentage was hit.
system.cpu.dcache.tags.occ_blocks::.cpu.data  1020.989978                       # Average occupied blocks per requestor
system.cpu.dcache.tags.occ_percent::.cpu.data     0.997061                       # Average percentage of cache occupancy
system.cpu.dcache.tags.occ_percent::total     0.997061                       # Average percentage of cache occupancy
system.cpu.dcache.tags.occ_task_id_blocks::1024         1024                       # Occupied blocks per task id
system.cpu.dcache.tags.age_task_id_blocks_1024::0            2                       # Occupied blocks per task id
system.cpu.dcache.tags.age_task_id_blocks_1024::1           14                       # Occupied blocks per task id
system.cpu.dcache.tags.age_task_id_blocks_1024::2          147                       # Occupied blocks per task id
system.cpu.dcache.tags.age_task_id_blocks_1024::3          861                       # Occupied blocks per task id
system.cpu.dcache.tags.occ_task_id_percent::1024            1                       # Percentage of cache occupancy per task id
system.cpu.dcache.tags.tag_accesses          35985016                       # Number of tag accesses
system.cpu.dcache.tags.data_accesses         35985016                       # Number of data accesses
system.cpu.dcache.tags.power_state.pwrStateResidencyTicks::UNDEFINED 195888703000                       # Cumulative time (in ticks) in various power states
system.cpu.dtb.instHits                             0                       # ITB inst hits
system.cpu.dtb.instMisses                           0                       # ITB inst misses
system.cpu.dtb.readHits                             0                       # DTB read hits
system.cpu.dtb.readMisses                           0                       # DTB read misses
system.cpu.dtb.writeHits                            0                       # DTB write hits
system.cpu.dtb.writeMisses                          0                       # DTB write misses
system.cpu.dtb.inserts                              0                       # Number of times an entry is inserted into the TLB
system.cpu.dtb.flushTlb                             0                       # Number of times complete TLB was flushed
system.cpu.dtb.flushTlbMva                          0                       # Number of times TLB was flushed by MVA
system.cpu.dtb.flushTlbMvaAsid                      0                       # Number of times TLB was flushed by MVA & ASID
system.cpu.dtb.flushTlbAsid                         0                       # Number of times TLB was flushed by ASID
system.cpu.dtb.flushedEntries                       0                       # Number of entries that have been flushed from TLB
system.cpu.dtb.alignFaults                          0                       # Number of TLB faults due to alignment restrictions
system.cpu.dtb.prefetchFaults                       0                       # Number of TLB faults due to prefetch
system.cpu.dtb.domainFaults                         0                       # Number of TLB faults due to domain restrictions
system.cpu.dtb.permsFaults                          0                       # Number of TLB faults due to permissions restrictions
system.cpu.dtb.readAccesses                         0                       # DTB read accesses
system.cpu.dtb.writeAccesses                        0                       # DTB write accesses
system.cpu.dtb.instAccesses                         0                       # ITB inst accesses
system.cpu.dtb.hits                                 0                       # Total TLB (inst and data) hits
system.cpu.dtb.misses                               0                       # Total TLB (inst and data) misses
system.cpu.dtb.accesses                             0                       # Total TLB (inst and data) accesses
system.cpu.dtb.stage2_mmu.stage2_tlb.instHits            0                       # ITB inst hits
system.cpu.dtb.stage2_mmu.stage2_tlb.instMisses            0                       # ITB inst misses
system.cpu.dtb.stage2_mmu.stage2_tlb.readHits            0                       # DTB read hits
system.cpu.dtb.stage2_mmu.stage2_tlb.readMisses            0                       # DTB read misses
system.cpu.dtb.stage2_mmu.stage2_tlb.writeHits            0                       # DTB write hits
system.cpu.dtb.stage2_mmu.stage2_tlb.writeMisses            0                       # DTB write misses
system.cpu.dtb.stage2_mmu.stage2_tlb.inserts            0                       # Number of times an entry is inserted into the TLB
system.cpu.dtb.stage2_mmu.stage2_tlb.flushTlb            0                       # Number of times complete TLB was flushed
system.cpu.dtb.stage2_mmu.stage2_tlb.flushTlbMva            0                       # Number of times TLB was flushed by MVA
system.cpu.dtb.stage2_mmu.stage2_tlb.flushTlbMvaAsid            0                       # Number of times TLB was flushed by MVA & ASID
system.cpu.dtb.stage2_mmu.stage2_tlb.flushTlbAsid            0                       # Number of times TLB was flushed by ASID
system.cpu.dtb.stage2_mmu.stage2_tlb.flushedEntries            0                       # Number of entries that have been flushed from TLB
system.cpu.dtb.stage2_mmu.stage2_tlb.alignFaults            0                       # Number of TLB faults due to alignment restrictions
system.cpu.dtb.stage2_mmu.stage2_tlb.prefetchFaults            0                       # Number of TLB faults due to prefetch
system.cpu.dtb.stage2_mmu.stage2_tlb.domainFaults            0                       # Number of TLB faults due to domain restrictions
system.cpu.dtb.stage2_mmu.stage2_tlb.permsFaults            0                       # Number of TLB faults due to permissions restrictions
system.cpu.dtb.stage2_mmu.stage2_tlb.readAccesses            0                       # DTB read accesses
system.cpu.dtb.stage2_mmu.stage2_tlb.writeAccesses            0                       # DTB write accesses
system.cpu.dtb.stage2_mmu.stage2_tlb.instAccesses            0                       # ITB inst accesses
system.cpu.dtb.stage2_mmu.stage2_tlb.hits            0                       # Total TLB (inst and data) hits
system.cpu.dtb.stage2_mmu.stage2_tlb.misses            0                       # Total TLB (inst and data) misses
system.cpu.dtb.stage2_mmu.stage2_tlb.accesses            0                       # Total TLB (inst and data) accesses
system.cpu.dtb.stage2_mmu.stage2_tlb.walker.walks            0                       # Table walker walks requested
system.cpu.dtb.stage2_mmu.stage2_tlb.walker.requestOrigin_Requested::Data            0                       # Table walker requests started/completed, data/inst
system.cpu.dtb.stage2_mmu.stage2_tlb.walker.requestOrigin_Requested::Inst            0                       # Table walker requests started/completed, data/inst
system.cpu.dtb.stage2_mmu.stage2_tlb.walker.requestOrigin_Requested::total            0                       # Table walker requests started/completed, data/inst
system.cpu.dtb.stage2_mmu.stage2_tlb.walker.requestOrigin_Completed::Data            0                       # Table walker requests started/completed, data/inst
system.cpu.dtb.stage2_mmu.stage2_tlb.walker.requestOrigin_Completed::Inst            0                       # Table walker requests started/completed, data/inst
system.cpu.dtb.stage2_mmu.stage2_tlb.walker.requestOrigin_Completed::total            0                       # Table walker requests started/completed, data/inst
system.cpu.dtb.stage2_mmu.stage2_tlb.walker.requestOrigin::total            0                       # Table walker requests started/completed, data/inst
system.cpu.dtb.stage2_mmu.stage2_tlb.walker.power_state.pwrStateResidencyTicks::UNDEFINED 195888703000                       # Cumulative time (in ticks) in various power states
system.cpu.dtb.walker.walks                         0                       # Table walker walks requested
system.cpu.dtb.walker.requestOrigin_Requested::Data            0                       # Table walker requests started/completed, data/inst
system.cpu.dtb.walker.requestOrigin_Requested::Inst            0                       # Table walker requests started/completed, data/inst
system.cpu.dtb.walker.requestOrigin_Requested::total            0                       # Table walker requests started/completed, data/inst
system.cpu.dtb.walker.requestOrigin_Completed::Data            0                       # Table walker requests started/completed, data/inst
system.cpu.dtb.walker.requestOrigin_Completed::Inst            0                       # Table walker requests started/completed, data/inst
system.cpu.dtb.walker.requestOrigin_Completed::total            0                       # Table walker requests started/completed, data/inst
system.cpu.dtb.walker.requestOrigin::total            0                       # Table walker requests started/completed, data/inst
system.cpu.dtb.walker.power_state.pwrStateResidencyTicks::UNDEFINED 195888703000                       # Cumulative time (in ticks) in various power states
system.cpu.fetch2.intInstructions            49559900                       # Number of integer instructions successfully decoded
system.cpu.fetch2.fpInstructions                    0                       # Number of floating point instructions successfully decoded
system.cpu.fetch2.vecInstructions                   0                       # Number of SIMD instructions successfully decoded
system.cpu.fetch2.loadInstructions           17147657                       # Number of memory load instructions successfully decoded
system.cpu.fetch2.storeInstructions           9895306                       # Number of memory store instructions successfully decoded
system.cpu.fetch2.amoInstructions                   0                       # Number of memory atomic instructions successfully decoded
system.cpu.icache.demand_hits::.cpu.inst     23443176                       # number of demand (read+write) hits
system.cpu.icache.demand_hits::total         23443176                       # number of demand (read+write) hits
system.cpu.icache.overall_hits::.cpu.inst     23443176                       # number of overall hits
system.cpu.icache.overall_hits::total        23443176                       # number of overall hits
system.cpu.icache.demand_misses::.cpu.inst      3787445                       # number of demand (read+write) misses
system.cpu.icache.demand_misses::total        3787445                       # number of demand (read+write) misses
system.cpu.icache.overall_misses::.cpu.inst      3787445                       # number of overall misses
system.cpu.icache.overall_misses::total       3787445                       # number of overall misses
system.cpu.icache.demand_miss_latency::.cpu.inst  99034224000                       # number of demand (read+write) miss cycles
system.cpu.icache.demand_miss_latency::total  99034224000                       # number of demand (read+write) miss cycles
system.cpu.icache.overall_miss_latency::.cpu.inst  99034224000                       # number of overall miss cycles
system.cpu.icache.overall_miss_latency::total  99034224000                       # number of overall miss cycles
system.cpu.icache.demand_accesses::.cpu.inst     27230621                       # number of demand (read+write) accesses
system.cpu.icache.demand_accesses::total     27230621                       # number of demand (read+write) accesses
system.cpu.icache.overall_accesses::.cpu.inst     27230621                       # number of overall (read+write) accesses
system.cpu.icache.overall_accesses::total     27230621                       # number of overall (read+write) accesses
system.cpu.icache.demand_miss_rate::.cpu.inst     0.139088                       # miss rate for demand accesses
system.cpu.icache.demand_miss_rate::total     0.139088                       # miss rate for demand accesses
system.cpu.icache.overall_miss_rate::.cpu.inst     0.139088                       # miss rate for overall accesses
system.cpu.icache.overall_miss_rate::total     0.139088                       # miss rate for overall accesses
system.cpu.icache.demand_avg_miss_latency::.cpu.inst 26148.029608                       # average overall miss latency
system.cpu.icache.demand_avg_miss_latency::total 26148.029608                       # average overall miss latency
system.cpu.icache.overall_avg_miss_latency::.cpu.inst 26148.029608                       # average overall miss latency
system.cpu.icache.overall_avg_miss_latency::total 26148.029608                       # average overall miss latency
system.cpu.icache.blocked_cycles::no_mshrs            0                       # number of cycles access was blocked
system.cpu.icache.blocked_cycles::no_targets            0                       # number of cycles access was blocked
system.cpu.icache.blocked::no_mshrs                 0                       # number of cycles access was blocked
system.cpu.icache.blocked::no_targets               0                       # number of cycles access was blocked
system.cpu.icache.avg_blocked_cycles::no_mshrs          nan                       # average number of cycles each access was blocked
system.cpu.icache.avg_blocked_cycles::no_targets          nan                       # average number of cycles each access was blocked
system.cpu.icache.writebacks::.writebacks      3787319                       # number of writebacks
system.cpu.icache.writebacks::total           3787319                       # number of writebacks
system.cpu.icache.demand_mshr_misses::.cpu.inst      3787445                       # number of demand (read+write) MSHR misses
system.cpu.icache.demand_mshr_misses::total      3787445                       # number of demand (read+write) MSHR misses
system.cpu.icache.overall_mshr_misses::.cpu.inst      3787445                       # number of overall MSHR misses
system.cpu.icache.overall_mshr_misses::total      3787445                       # number of overall MSHR misses
system.cpu.icache.demand_mshr_miss_latency::.cpu.inst  91459334000                       # number of demand (read+write) MSHR miss cycles
system.cpu.icache.demand_mshr_miss_latency::total  91459334000                       # number of demand (read+write) MSHR miss cycles
system.cpu.icache.overall_mshr_miss_latency::.cpu.inst  91459334000                       # number of overall MSHR miss cycles
system.cpu.icache.overall_mshr_miss_latency::total  91459334000                       # number of overall MSHR miss cycles
system.cpu.icache.demand_mshr_miss_rate::.cpu.inst     0.139088                       # mshr miss rate for demand accesses
system.cpu.icache.demand_mshr_miss_rate::total     0.139088                       # mshr miss rate for demand accesses
system.cpu.icache.overall_mshr_miss_rate::.cpu.inst     0.139088                       # mshr miss rate for overall accesses
system.cpu.icache.overall_mshr_miss_rate::total     0.139088                       # mshr miss rate for overall accesses
system.cpu.icache.demand_avg_mshr_miss_latency::.cpu.inst 24148.029608                       # average overall mshr miss latency
system.cpu.icache.demand_avg_mshr_miss_latency::total 24148.029608                       # average overall mshr miss latency
system.cpu.icache.overall_avg_mshr_miss_latency::.cpu.inst 24148.029608                       # average overall mshr miss latency
system.cpu.icache.overall_avg_mshr_miss_latency::total 24148.029608                       # average overall mshr miss latency
system.cpu.icache.replacements                3787319                       # number of replacements
system.cpu.icache.ReadReq_hits::.cpu.inst     23443176                       # number of ReadReq hits
system.cpu.icache.ReadReq_hits::total        23443176                       # number of ReadReq hits
system.cpu.icache.ReadReq_misses::.cpu.inst      3787445                       # number of ReadReq misses
system.cpu.icache.ReadReq_misses::total       3787445                       # number of ReadReq misses
system.cpu.icache.ReadReq_miss_latency::.cpu.inst  99034224000                       # number of ReadReq miss cycles
system.cpu.icache.ReadReq_miss_latency::total  99034224000                       # number of ReadReq miss cycles
system.cpu.icache.ReadReq_accesses::.cpu.inst     27230621                       # number of ReadReq accesses(hits+misses)
system.cpu.icache.ReadReq_accesses::total     27230621                       # number of ReadReq accesses(hits+misses)
system.cpu.icache.ReadReq_miss_rate::.cpu.inst     0.139088                       # miss rate for ReadReq accesses
system.cpu.icache.ReadReq_miss_rate::total     0.139088                       # miss rate for ReadReq accesses
system.cpu.icache.ReadReq_avg_miss_latency::.cpu.inst 26148.029608                       # average ReadReq miss latency
system.cpu.icache.ReadReq_avg_miss_latency::total 26148.029608                       # average ReadReq miss latency
system.cpu.icache.ReadReq_mshr_misses::.cpu.inst      3787445                       # number of ReadReq MSHR misses
system.cpu.icache.ReadReq_mshr_misses::total      3787445                       # number of ReadReq MSHR misses
system.cpu.icache.ReadReq_mshr_miss_latency::.cpu.inst  91459334000                       # number of ReadReq MSHR miss cycles
system.cpu.icache.ReadReq_mshr_miss_latency::total  91459334000                       # number of ReadReq MSHR miss cycles
system.cpu.icache.ReadReq_mshr_miss_rate::.cpu.inst     0.139088                       # mshr miss rate for ReadReq accesses
system.cpu.icache.ReadReq_mshr_miss_rate::total     0.139088                       # mshr miss rate for ReadReq accesses
system.cpu.icache.ReadReq_avg_mshr_miss_latency::.cpu.inst 24148.029608                       # average ReadReq mshr miss latency
system.cpu.icache.ReadReq_avg_mshr_miss_latency::total 24148.029608                       # average ReadReq mshr miss latency
system.cpu.icache.power_state.pwrStateResidencyTicks::UNDEFINED 195888703000                       # Cumulative time (in ticks) in various power states
system.cpu.icache.tags.tagsinuse           125.987607                       # Cycle average of tags in use
system.cpu.icache.tags.total_refs            27230621                       # Total number of references to valid blocks.
system.cpu.icache.tags.sampled_refs           3787445                       # Sample count of references to valid blocks.
system.cpu.icache.tags.avg_refs              7.189707                       # Average number of references to valid blocks.
system.cpu.icache.tags.warmup_cycle            108000                       # Cycle when the warmup percentage was hit.
system.cpu.icache.tags.occ_blocks::.cpu.inst   125.987607                       # Average occupied blocks per requestor
system.cpu.icache.tags.occ_percent::.cpu.inst     0.984278                       # Average percentage of cache occupancy
system.cpu.icache.tags.occ_percent::total     0.984278                       # Average percentage of cache occupancy
system.cpu.icache.tags.occ_task_id_blocks::1024          126                       # Occupied blocks per task id
system.cpu.icache.tags.age_task_id_blocks_1024::0           29                       # Occupied blocks per task id
system.cpu.icache.tags.age_task_id_blocks_1024::1            1                       # Occupied blocks per task id
system.cpu.icache.tags.age_task_id_blocks_1024::3           10                       # Occupied blocks per task id
system.cpu.icache.tags.age_task_id_blocks_1024::4           86                       # Occupied blocks per task id
system.cpu.icache.tags.occ_task_id_percent::1024     0.984375                       # Percentage of cache occupancy per task id
system.cpu.icache.tags.tag_accesses          31018066                       # Number of tag accesses
system.cpu.icache.tags.data_accesses         31018066                       # Number of data accesses
system.cpu.icache.tags.power_state.pwrStateResidencyTicks::UNDEFINED 195888703000                       # Cumulative time (in ticks) in various power states
system.cpu.itb.instHits                             0                       # ITB inst hits
system.cpu.itb.instMisses                           0                       # ITB inst misses
system.cpu.itb.readHits                             0                       # DTB read hits
system.cpu.itb.readMisses                           0                       # DTB read misses
system.cpu.itb.writeHits                            0                       # DTB write hits
system.cpu.itb.writeMisses                          0                       # DTB write misses
system.cpu.itb.inserts                              0                       # Number of times an entry is inserted into the TLB
system.cpu.itb.flushTlb                             0                       # Number of times complete TLB was flushed
system.cpu.itb.flushTlbMva                          0                       # Number of times TLB was flushed by MVA
system.cpu.itb.flushTlbMvaAsid                      0                       # Number of times TLB was flushed by MVA & ASID
system.cpu.itb.flushTlbAsid                         0                       # Number of times TLB was flushed by ASID
system.cpu.itb.flushedEntries                       0                       # Number of entries that have been flushed from TLB
system.cpu.itb.alignFaults                          0                       # Number of TLB faults due to alignment restrictions
system.cpu.itb.prefetchFaults                       0                       # Number of TLB faults due to prefetch
system.cpu.itb.domainFaults                         0                       # Number of TLB faults due to domain restrictions
system.cpu.itb.permsFaults                          0                       # Number of TLB faults due to permissions restrictions
system.cpu.itb.readAccesses                         0                       # DTB read accesses
system.cpu.itb.writeAccesses                        0                       # DTB write accesses
system.cpu.itb.instAccesses                         0                       # ITB inst accesses
system.cpu.itb.hits                                 0                       # Total TLB (inst and data) hits
system.cpu.itb.misses                               0                       # Total TLB (inst and data) misses
system.cpu.itb.accesses                             0                       # Total TLB (inst and data) accesses
system.cpu.itb.stage2_mmu.stage2_tlb.instHits            0                       # ITB inst hits
system.cpu.itb.stage2_mmu.stage2_tlb.instMisses            0                       # ITB inst misses
system.cpu.itb.stage2_mmu.stage2_tlb.readHits            0                       # DTB read hits
system.cpu.itb.stage2_mmu.stage2_tlb.readMisses            0                       # DTB read misses
system.cpu.itb.stage2_mmu.stage2_tlb.writeHits            0                       # DTB write hits
system.cpu.itb.stage2_mmu.stage2_tlb.writeMisses            0                       # DTB write misses
system.cpu.itb.stage2_mmu.stage2_tlb.inserts            0                       # Number of times an entry is inserted into the TLB
system.cpu.itb.stage2_mmu.stage2_tlb.flushTlb            0                       # Number of times complete TLB was flushed
system.cpu.itb.stage2_mmu.stage2_tlb.flushTlbMva            0                       # Number of times TLB was flushed by MVA
system.cpu.itb.stage2_mmu.stage2_tlb.flushTlbMvaAsid            0                       # Number of times TLB was flushed by MVA & ASID
system.cpu.itb.stage2_mmu.stage2_tlb.flushTlbAsid            0                       # Number of times TLB was flushed by ASID
system.cpu.itb.stage2_mmu.stage2_tlb.flushedEntries            0                       # Number of entries that have been flushed from TLB
system.cpu.itb.stage2_mmu.stage2_tlb.alignFaults            0                       # Number of TLB faults due to alignment restrictions
system.cpu.itb.stage2_mmu.stage2_tlb.prefetchFaults            0                       # Number of TLB faults due to prefetch
system.cpu.itb.stage2_mmu.stage2_tlb.domainFaults            0                       # Number of TLB faults due to domain restrictions
system.cpu.itb.stage2_mmu.stage2_tlb.permsFaults            0                       # Number of TLB faults due to permissions restrictions
system.cpu.itb.stage2_mmu.stage2_tlb.readAccesses            0                       # DTB read accesses
system.cpu.itb.stage2_mmu.stage2_tlb.writeAccesses            0                       # DTB write accesses
system.cpu.itb.stage2_mmu.stage2_tlb.instAccesses            0                       # ITB inst accesses
system.cpu.itb.stage2_mmu.stage2_tlb.hits            0                       # Total TLB (inst and data) hits
system.cpu.itb.stage2_mmu.stage2_tlb.misses            0                       # Total TLB (inst and data) misses
system.cpu.itb.stage2_mmu.stage2_tlb.accesses            0                       # Total TLB (inst and data) accesses
system.cpu.itb.stage2_mmu.stage2_tlb.walker.walks            0                       # Table walker walks requested
system.cpu.itb.stage2_mmu.stage2_tlb.walker.requestOrigin_Requested::Data            0                       # Table walker requests started/completed, data/inst
system.cpu.itb.stage2_mmu.stage2_tlb.walker.requestOrigin_Requested::Inst            0                       # Table walker requests started/completed, data/inst
system.cpu.itb.stage2_mmu.stage2_tlb.walker.requestOrigin_Requested::total            0                       # Table walker requests started/completed, data/inst
system.cpu.itb.stage2_mmu.stage2_tlb.walker.requestOrigin_Completed::Data            0                       # Table walker requests started/completed, data/inst
system.cpu.itb.stage2_mmu.stage2_tlb.walker.requestOrigin_Completed::Inst            0                       # Table walker requests started/completed, data/inst
system.cpu.itb.stage2_mmu.stage2_tlb.walker.requestOrigin_Completed::total            0                       # Table walker requests started/completed, data/inst
system.cpu.itb.stage2_mmu.stage2_tlb.walker.requestOrigin::total            0                       # Table walker requests started/completed, data/inst
system.cpu.itb.stage2_mmu.stage2_tlb.walker.power_state.pwrStateResidencyTicks::UNDEFINED 195888703000                       # Cumulative time (in ticks) in various power states
system.cpu.itb.walker.walks                         0                       # Table walker walks requested
system.cpu.itb.walker.requestOrigin_Requested::Data            0                       # Table walker requests started/completed, data/inst
system.cpu.itb.walker.requestOrigin_Requested::Inst            0                       # Table walker requests started/completed, data/inst
system.cpu.itb.walker.requestOrigin_Requested::total            0                       # Table walker requests started/completed, data/inst
system.cpu.itb.walker.requestOrigin_Completed::Data            0                       # Table walker requests started/completed, data/inst
system.cpu.itb.walker.requestOrigin_Completed::Inst            0                       # Table walker requests started/completed, data/inst
system.cpu.itb.walker.requestOrigin_Completed::total            0                       # Table walker requests started/completed, data/inst
system.cpu.itb.walker.requestOrigin::total            0                       # Table walker requests started/completed, data/inst
system.cpu.itb.walker.power_state.pwrStateResidencyTicks::UNDEFINED 195888703000                       # Cumulative time (in ticks) in various power states
system.cpu.power_state.pwrStateResidencyTicks::ON 195888703000                       # Cumulative time (in ticks) in various power states
system.cpu.thread_0.numInsts                100000000                       # Number of Instructions committed
system.cpu.thread_0.numOps                  109431833                       # Number of Ops committed
system.cpu.thread_0.numMemRefs                      0                       # Number of Memory References
system.cpu_clk_domain.clock                      1000                       # Clock period in ticks
system.cpu_voltage_domain.voltage                   1                       # Voltage in Volts
system.l2.demand_hits::.cpu.inst              3786827                       # number of demand (read+write) hits
system.l2.demand_hits::.cpu.data                25524                       # number of demand (read+write) hits
system.l2.demand_hits::total                  3812351                       # number of demand (read+write) hits
system.l2.overall_hits::.cpu.inst             3786827                       # number of overall hits
system.l2.overall_hits::.cpu.data               25524                       # number of overall hits
system.l2.overall_hits::total                 3812351                       # number of overall hits
system.l2.demand_misses::.cpu.inst                618                       # number of demand (read+write) misses
system.l2.demand_misses::.cpu.data              46201                       # number of demand (read+write) misses
system.l2.demand_misses::total                  46819                       # number of demand (read+write) misses
system.l2.overall_misses::.cpu.inst               618                       # number of overall misses
system.l2.overall_misses::.cpu.data             46201                       # number of overall misses
system.l2.overall_misses::total                 46819                       # number of overall misses
system.l2.demand_miss_latency::.cpu.inst     62495000                       # number of demand (read+write) miss cycles
system.l2.demand_miss_latency::.cpu.data   4863741000                       # number of demand (read+write) miss cycles
system.l2.demand_miss_latency::total       4926236000                       # number of demand (read+write) miss cycles
system.l2.overall_miss_latency::.cpu.inst     62495000                       # number of overall miss cycles
system.l2.overall_miss_latency::.cpu.data   4863741000                       # number of overall miss cycles
system.l2.overall_miss_latency::total      4926236000                       # number of overall miss cycles
system.l2.demand_accesses::.cpu.inst          3787445                       # number of demand (read+write) accesses
system.l2.demand_accesses::.cpu.data            71725                       # number of demand (read+write) accesses
system.l2.demand_accesses::total              3859170                       # number of demand (read+write) accesses
system.l2.overall_accesses::.cpu.inst         3787445                       # number of overall (read+write) accesses
system.l2.overall_accesses::.cpu.data           71725                       # number of overall (read+write) accesses
system.l2.overall_accesses::total             3859170                       # number of overall (read+write) accesses
system.l2.demand_miss_rate::.cpu.inst        0.000163                       # miss rate for demand accesses
system.l2.demand_miss_rate::.cpu.data        0.644141                       # miss rate for demand accesses
system.l2.demand_miss_rate::total            0.012132                       # miss rate for demand accesses
system.l2.overall_miss_rate::.cpu.inst       0.000163                       # miss rate for overall accesses
system.l2.overall_miss_rate::.cpu.data       0.644141                       # miss rate for overall accesses
system.l2.overall_miss_rate::total           0.012132                       # miss rate for overall accesses
system.l2.demand_avg_miss_latency::.cpu.inst 101124.595469                       # average overall miss latency
system.l2.demand_avg_miss_latency::.cpu.data 105273.500574                       # average overall miss latency
system.l2.demand_avg_miss_latency::total 105218.735983                       # average overall miss latency
system.l2.overall_avg_miss_latency::.cpu.inst 101124.595469                       # average overall miss latency
system.l2.overall_avg_miss_latency::.cpu.data 105273.500574                       # average overall miss latency
system.l2.overall_avg_miss_latency::total 105218.735983                       # average overall miss latency
system.l2.blocked_cycles::no_mshrs                  0                       # number of cycles access was blocked
system.l2.blocked_cycles::no_targets                0                       # number of cycles access was blocked
system.l2.blocked::no_mshrs                         0                       # number of cycles access was blocked
system.l2.blocked::no_targets                       0                       # number of cycles access was blocked
system.l2.avg_blocked_cycles::no_mshrs            nan                       # average number of cycles each access was blocked
system.l2.avg_blocked_cycles::no_targets          nan                       # average number of cycles each access was blocked
system.l2.writebacks::.writebacks               37803                       # number of writebacks
system.l2.writebacks::total                     37803                       # number of writebacks
system.l2.demand_mshr_hits::.cpu.data               5                       # number of demand (read+write) MSHR hits
system.l2.demand_mshr_hits::total                   5                       # number of demand (read+write) MSHR hits
system.l2.overall_mshr_hits::.cpu.data              5                       # number of overall MSHR hits
system.l2.overall_mshr_hits::total                  5                       # number of overall MSHR hits
system.l2.demand_mshr_misses::.cpu.inst           618                       # number of demand (read+write) MSHR misses
system.l2.demand_mshr_misses::.cpu.data         46196                       # number of demand (read+write) MSHR misses
system.l2.demand_mshr_misses::total             46814                       # number of demand (read+write) MSHR misses
system.l2.overall_mshr_misses::.cpu.inst          618                       # number of overall MSHR misses
system.l2.overall_mshr_misses::.cpu.data        46196                       # number of overall MSHR misses
system.l2.overall_mshr_misses::total            46814                       # number of overall MSHR misses
system.l2.demand_mshr_miss_latency::.cpu.inst     50135000                       # number of demand (read+write) MSHR miss cycles
system.l2.demand_mshr_miss_latency::.cpu.data   3939413000                       # number of demand (read+write) MSHR miss cycles
system.l2.demand_mshr_miss_latency::total   3989548000                       # number of demand (read+write) MSHR miss cycles
system.l2.overall_mshr_miss_latency::.cpu.inst     50135000                       # number of overall MSHR miss cycles
system.l2.overall_mshr_miss_latency::.cpu.data   3939413000                       # number of overall MSHR miss cycles
system.l2.overall_mshr_miss_latency::total   3989548000                       # number of overall MSHR miss cycles
system.l2.demand_mshr_miss_rate::.cpu.inst     0.000163                       # mshr miss rate for demand accesses
system.l2.demand_mshr_miss_rate::.cpu.data     0.644071                       # mshr miss rate for demand accesses
system.l2.demand_mshr_miss_rate::total       0.012131                       # mshr miss rate for demand accesses
system.l2.overall_mshr_miss_rate::.cpu.inst     0.000163                       # mshr miss rate for overall accesses
system.l2.overall_mshr_miss_rate::.cpu.data     0.644071                       # mshr miss rate for overall accesses
system.l2.overall_mshr_miss_rate::total      0.012131                       # mshr miss rate for overall accesses
system.l2.demand_avg_mshr_miss_latency::.cpu.inst 81124.595469                       # average overall mshr miss latency
system.l2.demand_avg_mshr_miss_latency::.cpu.data 85276.062863                       # average overall mshr miss latency
system.l2.demand_avg_mshr_miss_latency::total 85221.258598                       # average overall mshr miss latency
system.l2.overall_avg_mshr_miss_latency::.cpu.inst 81124.595469                       # average overall mshr miss latency
system.l2.overall_avg_mshr_miss_latency::.cpu.data 85276.062863                       # average overall mshr miss latency
system.l2.overall_avg_mshr_miss_latency::total 85221.258598                       # average overall mshr miss latency
system.l2.replacements                          39297                       # number of replacements
system.l2.WritebackDirty_hits::.writebacks        60114                       # number of WritebackDirty hits
system.l2.WritebackDirty_hits::total            60114                       # number of WritebackDirty hits
system.l2.WritebackDirty_accesses::.writebacks        60114                       # number of WritebackDirty accesses(hits+misses)
system.l2.WritebackDirty_accesses::total        60114                       # number of WritebackDirty accesses(hits+misses)
system.l2.WritebackClean_hits::.writebacks      3532535                       # number of WritebackClean hits
system.l2.WritebackClean_hits::total          3532535                       # number of WritebackClean hits
system.l2.WritebackClean_accesses::.writebacks      3532535                       # number of WritebackClean accesses(hits+misses)
system.l2.WritebackClean_accesses::total      3532535                       # number of WritebackClean accesses(hits+misses)
system.l2.CleanEvict_mshr_misses::.writebacks          161                       # number of CleanEvict MSHR misses
system.l2.CleanEvict_mshr_misses::total           161                       # number of CleanEvict MSHR misses
system.l2.CleanEvict_mshr_miss_rate::.writebacks          inf                       # mshr miss rate for CleanEvict accesses
system.l2.CleanEvict_mshr_miss_rate::total          inf                       # mshr miss rate for CleanEvict accesses
system.l2.ReadExReq_hits::.cpu.data              4345                       # number of ReadExReq hits
system.l2.ReadExReq_hits::total                  4345                       # number of ReadExReq hits
system.l2.ReadExReq_misses::.cpu.data           38812                       # number of ReadExReq misses
system.l2.ReadExReq_misses::total               38812                       # number of ReadExReq misses
system.l2.ReadExReq_miss_latency::.cpu.data   4053209000                       # number of ReadExReq miss cycles
system.l2.ReadExReq_miss_latency::total    4053209000                       # number of ReadExReq miss cycles
system.l2.ReadExReq_accesses::.cpu.data         43157                       # number of ReadExReq accesses(hits+misses)
system.l2.ReadExReq_accesses::total             43157                       # number of ReadExReq accesses(hits+misses)
system.l2.ReadExReq_miss_rate::.cpu.data     0.899321                       # miss rate for ReadExReq accesses
system.l2.ReadExReq_miss_rate::total         0.899321                       # miss rate for ReadExReq accesses
system.l2.ReadExReq_avg_miss_latency::.cpu.data 104431.850974                       # average ReadExReq miss latency
system.l2.ReadExReq_avg_miss_latency::total 104431.850974                       # average ReadExReq miss latency
system.l2.ReadExReq_mshr_misses::.cpu.data        38812                       # number of ReadExReq MSHR misses
system.l2.ReadExReq_mshr_misses::total          38812                       # number of ReadExReq MSHR misses
system.l2.ReadExReq_mshr_miss_latency::.cpu.data   3276969000                       # number of ReadExReq MSHR miss cycles
system.l2.ReadExReq_mshr_miss_latency::total   3276969000                       # number of ReadExReq MSHR miss cycles
system.l2.ReadExReq_mshr_miss_rate::.cpu.data     0.899321                       # mshr miss rate for ReadExReq accesses
system.l2.ReadExReq_mshr_miss_rate::total     0.899321                       # mshr miss rate for ReadExReq accesses
system.l2.ReadExReq_avg_mshr_miss_latency::.cpu.data 84431.850974                       # average ReadExReq mshr miss latency
system.l2.ReadExReq_avg_mshr_miss_latency::total 84431.850974                       # average ReadExReq mshr miss latency
system.l2.ReadCleanReq_hits::.cpu.inst        3786827                       # number of ReadCleanReq hits
system.l2.ReadCleanReq_hits::total            3786827                       # number of ReadCleanReq hits
system.l2.ReadCleanReq_misses::.cpu.inst          618                       # number of ReadCleanReq misses
system.l2.ReadCleanReq_misses::total              618                       # number of ReadCleanReq misses
system.l2.ReadCleanReq_miss_latency::.cpu.inst     62495000                       # number of ReadCleanReq miss cycles
system.l2.ReadCleanReq_miss_latency::total     62495000                       # number of ReadCleanReq miss cycles
system.l2.ReadCleanReq_accesses::.cpu.inst      3787445                       # number of ReadCleanReq accesses(hits+misses)
system.l2.ReadCleanReq_accesses::total        3787445                       # number of ReadCleanReq accesses(hits+misses)
system.l2.ReadCleanReq_miss_rate::.cpu.inst     0.000163                       # miss rate for ReadCleanReq accesses
system.l2.ReadCleanReq_miss_rate::total      0.000163                       # miss rate for ReadCleanReq accesses
system.l2.ReadCleanReq_avg_miss_latency::.cpu.inst 101124.595469                       # average ReadCleanReq miss latency
system.l2.ReadCleanReq_avg_miss_latency::total 101124.595469                       # average ReadCleanReq miss latency
system.l2.ReadCleanReq_mshr_misses::.cpu.inst          618                       # number of ReadCleanReq MSHR misses
system.l2.ReadCleanReq_mshr_misses::total          618                       # number of ReadCleanReq MSHR misses
system.l2.ReadCleanReq_mshr_miss_latency::.cpu.inst     50135000                       # number of ReadCleanReq MSHR miss cycles
system.l2.ReadCleanReq_mshr_miss_latency::total     50135000                       # number of ReadCleanReq MSHR miss cycles
system.l2.ReadCleanReq_mshr_miss_rate::.cpu.inst     0.000163                       # mshr miss rate for ReadCleanReq accesses
system.l2.ReadCleanReq_mshr_miss_rate::total     0.000163                       # mshr miss rate for ReadCleanReq accesses
system.l2.ReadCleanReq_avg_mshr_miss_latency::.cpu.inst 81124.595469                       # average ReadCleanReq mshr miss latency
system.l2.ReadCleanReq_avg_mshr_miss_latency::total 81124.595469                       # average ReadCleanReq mshr miss latency
system.l2.ReadSharedReq_hits::.cpu.data         21179                       # number of ReadSharedReq hits
system.l2.ReadSharedReq_hits::total             21179                       # number of ReadSharedReq hits
system.l2.ReadSharedReq_misses::.cpu.data         7389                       # number of ReadSharedReq misses
system.l2.ReadSharedReq_misses::total            7389                       # number of ReadSharedReq misses
system.l2.ReadSharedReq_miss_latency::.cpu.data    810532000                       # number of ReadSharedReq miss cycles
system.l2.ReadSharedReq_miss_latency::total    810532000                       # number of ReadSharedReq miss cycles
system.l2.ReadSharedReq_accesses::.cpu.data        28568                       # number of ReadSharedReq accesses(hits+misses)
system.l2.ReadSharedReq_accesses::total         28568                       # number of ReadSharedReq accesses(hits+misses)
system.l2.ReadSharedReq_miss_rate::.cpu.data     0.258646                       # miss rate for ReadSharedReq accesses
system.l2.ReadSharedReq_miss_rate::total     0.258646                       # miss rate for ReadSharedReq accesses
system.l2.ReadSharedReq_avg_miss_latency::.cpu.data 109694.410610                       # average ReadSharedReq miss latency
system.l2.ReadSharedReq_avg_miss_latency::total 109694.410610                       # average ReadSharedReq miss latency
system.l2.ReadSharedReq_mshr_hits::.cpu.data            5                       # number of ReadSharedReq MSHR hits
system.l2.ReadSharedReq_mshr_hits::total            5                       # number of ReadSharedReq MSHR hits
system.l2.ReadSharedReq_mshr_misses::.cpu.data         7384                       # number of ReadSharedReq MSHR misses
system.l2.ReadSharedReq_mshr_misses::total         7384                       # number of ReadSharedReq MSHR misses
system.l2.ReadSharedReq_mshr_miss_latency::.cpu.data    662444000                       # number of ReadSharedReq MSHR miss cycles
system.l2.ReadSharedReq_mshr_miss_latency::total    662444000                       # number of ReadSharedReq MSHR miss cycles
system.l2.ReadSharedReq_mshr_miss_rate::.cpu.data     0.258471                       # mshr miss rate for ReadSharedReq accesses
system.l2.ReadSharedReq_mshr_miss_rate::total     0.258471                       # mshr miss rate for ReadSharedReq accesses
system.l2.ReadSharedReq_avg_mshr_miss_latency::.cpu.data 89713.434453                       # average ReadSharedReq mshr miss latency
system.l2.ReadSharedReq_avg_mshr_miss_latency::total 89713.434453                       # average ReadSharedReq mshr miss latency
system.l2.power_state.pwrStateResidencyTicks::UNDEFINED 195888703000                       # Cumulative time (in ticks) in various power states
system.l2.tags.tagsinuse                  8009.689398                       # Cycle average of tags in use
system.l2.tags.total_refs                     7461577                       # Total number of references to valid blocks.
system.l2.tags.sampled_refs                     47489                       # Sample count of references to valid blocks.
system.l2.tags.avg_refs                    157.122218                       # Average number of references to valid blocks.
system.l2.tags.warmup_cycle                     87000                       # Cycle when the warmup percentage was hit.
system.l2.tags.occ_blocks::.writebacks      75.790185                       # Average occupied blocks per requestor
system.l2.tags.occ_blocks::.cpu.inst       102.725704                       # Average occupied blocks per requestor
system.l2.tags.occ_blocks::.cpu.data      7831.173509                       # Average occupied blocks per requestor
system.l2.tags.occ_percent::.writebacks      0.009252                       # Average percentage of cache occupancy
system.l2.tags.occ_percent::.cpu.inst        0.012540                       # Average percentage of cache occupancy
system.l2.tags.occ_percent::.cpu.data        0.955954                       # Average percentage of cache occupancy
system.l2.tags.occ_percent::total            0.977745                       # Average percentage of cache occupancy
system.l2.tags.occ_task_id_blocks::1024          8192                       # Occupied blocks per task id
system.l2.tags.age_task_id_blocks_1024::0            2                       # Occupied blocks per task id
system.l2.tags.age_task_id_blocks_1024::1            9                       # Occupied blocks per task id
system.l2.tags.age_task_id_blocks_1024::2          115                       # Occupied blocks per task id
system.l2.tags.age_task_id_blocks_1024::3         1584                       # Occupied blocks per task id
system.l2.tags.age_task_id_blocks_1024::4         6482                       # Occupied blocks per task id
system.l2.tags.occ_task_id_percent::1024            1                       # Percentage of cache occupancy per task id
system.l2.tags.tag_accesses                  14970975                       # Number of tag accesses
system.l2.tags.data_accesses                 14970975                       # Number of data accesses
system.l2.tags.power_state.pwrStateResidencyTicks::UNDEFINED 195888703000                       # Cumulative time (in ticks) in various power states
system.mem_ctrls.avgPriority_.writebacks::samples     37803.00                       # Average QoS priority value for accepted requests
system.mem_ctrls.avgPriority_.cpu.inst::samples       618.00                       # Average QoS priority value for accepted requests
system.mem_ctrls.avgPriority_.cpu.data::samples     46176.00                       # Average QoS priority value for accepted requests
system.mem_ctrls.priorityMinLatency      0.000000018750                       # per QoS priority minimum request to response latency (s)
system.mem_ctrls.priorityMaxLatency      0.002522352500                       # per QoS priority maximum request to response latency (s)
system.mem_ctrls.numReadWriteTurnArounds         2116                       # Number of turnarounds from READ to WRITE
system.mem_ctrls.numWriteReadTurnArounds         2116                       # Number of turnarounds from WRITE to READ
system.mem_ctrls.numStayReadState              181151                       # Number of times bus staying in READ state
system.mem_ctrls.numStayWriteState              35718                       # Number of times bus staying in WRITE state
system.mem_ctrls.readReqs                       46814                       # Number of read requests accepted
system.mem_ctrls.writeReqs                      37803                       # Number of write requests accepted
system.mem_ctrls.readBursts                     46814                       # Number of controller read bursts, including those serviced by the write queue
system.mem_ctrls.writeBursts                    37803                       # Number of controller write bursts, including those merged in the write queue
system.mem_ctrls.servicedByWrQ                     20                       # Number of controller read bursts serviced by the write queue
system.mem_ctrls.mergedWrBursts                     0                       # Number of controller write bursts merged with an existing one
system.mem_ctrls.neitherReadNorWriteReqs            0                       # Number of requests that are neither read nor write
system.mem_ctrls.avgRdQLen                       1.05                       # Average read queue length when enqueuing
system.mem_ctrls.avgWrQLen                      23.74                       # Average write queue length when enqueuing
system.mem_ctrls.numRdRetry                         0                       # Number of times read queue was full causing retry
system.mem_ctrls.numWrRetry                         0                       # Number of times write queue was full causing retry
system.mem_ctrls.readPktSize::0                     0                       # Read request sizes (log2)
[...]
system.mem_ctrls.dram.bw_write::.writebacks     12350850                       # Write bandwidth from this memory (bytes/s)
system.mem_ctrls.dram.bw_write::total        12350850                       # Write bandwidth from this memory (bytes/s)
system.mem_ctrls.dram.bw_total::.writebacks     12350850                       # Total bandwidth to/from this memory (bytes/s)
system.mem_ctrls.dram.bw_total::.cpu.inst       201911                       # Total bandwidth to/from this memory (bytes/s)
system.mem_ctrls.dram.bw_total::.cpu.data     15092979                       # Total bandwidth to/from this memory (bytes/s)
system.mem_ctrls.dram.bw_total::total        27645739                       # Total bandwidth to/from this memory (bytes/s)
system.mem_ctrls.dram.readBursts                46794                       # Number of DRAM read bursts
system.mem_ctrls.dram.writeBursts               37781                       # Number of DRAM write bursts
system.mem_ctrls.dram.perBankRdBursts::0         2885                       # Per bank write bursts
system.mem_ctrls.dram.perBankRdBursts::1         2879                       # Per bank write bursts
system.mem_ctrls.dram.perBankRdBursts::2         2848                       # Per bank write bursts
system.mem_ctrls.dram.perBankRdBursts::3         2993                       # Per bank write bursts
system.mem_ctrls.dram.perBankRdBursts::4         3131                       # Per bank write bursts
system.mem_ctrls.dram.perBankRdBursts::5         2800                       # Per bank write bursts
system.mem_ctrls.dram.perBankRdBursts::6         2880                       # Per bank write bursts
system.mem_ctrls.dram.perBankRdBursts::7         3015                       # Per bank write bursts
system.mem_ctrls.dram.perBankRdBursts::8         2868                       # Per bank write bursts
system.mem_ctrls.dram.perBankRdBursts::9         2967                       # Per bank write bursts
system.mem_ctrls.dram.perBankRdBursts::10         2951                       # Per bank write bursts
system.mem_ctrls.dram.perBankRdBursts::11         2875                       # Per bank write bursts
system.mem_ctrls.dram.perBankRdBursts::12         2973                       # Per bank write bursts
system.mem_ctrls.dram.perBankRdBursts::13         2850                       # Per bank write bursts
system.mem_ctrls.dram.perBankRdBursts::14         2983                       # Per bank write bursts
system.mem_ctrls.dram.perBankRdBursts::15         2896                       # Per bank write bursts
system.mem_ctrls.dram.perBankWrBursts::0         2316                       # Per bank write bursts
system.mem_ctrls.dram.perBankWrBursts::1         2338                       # Per bank write bursts
system.mem_ctrls.dram.perBankWrBursts::2         2320                       # Per bank write bursts
system.mem_ctrls.dram.perBankWrBursts::3         2367                       # Per bank write bursts
system.mem_ctrls.dram.perBankWrBursts::4         2402                       # Per bank write bursts
system.mem_ctrls.dram.perBankWrBursts::5         2289                       # Per bank write bursts
system.mem_ctrls.dram.perBankWrBursts::6         2373                       # Per bank write bursts
system.mem_ctrls.dram.perBankWrBursts::7         2471                       # Per bank write bursts
system.mem_ctrls.dram.perBankWrBursts::8         2330                       # Per bank write bursts
system.mem_ctrls.dram.perBankWrBursts::9         2394                       # Per bank write bursts
system.mem_ctrls.dram.perBankWrBursts::10         2404                       # Per bank write bursts
system.mem_ctrls.dram.perBankWrBursts::11         2301                       # Per bank write bursts
system.mem_ctrls.dram.perBankWrBursts::12         2406                       # Per bank write bursts
system.mem_ctrls.dram.perBankWrBursts::13         2322                       # Per bank write bursts
system.mem_ctrls.dram.perBankWrBursts::14         2394                       # Per bank write bursts
system.mem_ctrls.dram.perBankWrBursts::15         2354                       # Per bank write bursts
system.mem_ctrls.dram.totQLat               704603750                       # Total ticks spent queuing
system.mem_ctrls.dram.totBusLat             233970000                       # Total ticks spent in databus transfers
system.mem_ctrls.dram.totMemAccLat         1581991250                       # Total ticks spent from burst creation until serviced by the DRAM
system.mem_ctrls.dram.avgQLat                15057.57                       # Average queueing delay per DRAM burst
system.mem_ctrls.dram.avgBusLat               5000.00                       # Average bus latency per DRAM burst
system.mem_ctrls.dram.avgMemAccLat           33807.57                       # Average memory access latency per DRAM burst
system.mem_ctrls.dram.readRowHits               12759                       # Number of row buffer hits during reads
system.mem_ctrls.dram.writeRowHits              27313                       # Number of row buffer hits during writes
system.mem_ctrls.dram.readRowHitRate            27.27                       # Row buffer hit rate for reads
system.mem_ctrls.dram.writeRowHitRate           72.29                       # Row buffer hit rate for writes
system.mem_ctrls.dram.bytesPerActivate::samples        44502                       # Bytes accessed per row activation
system.mem_ctrls.dram.bytesPerActivate::mean   121.629050                       # Bytes accessed per row activation
system.mem_ctrls.dram.bytesPerActivate::gmean    87.783556                       # Bytes accessed per row activation
system.mem_ctrls.dram.bytesPerActivate::stdev   159.611729                       # Bytes accessed per row activation
system.mem_ctrls.dram.bytesPerActivate::0-127        33893     76.16%     76.16% # Bytes accessed per row activation
system.mem_ctrls.dram.bytesPerActivate::128-255         5796     13.02%     89.18% # Bytes accessed per row activation
system.mem_ctrls.dram.bytesPerActivate::256-383         2550      5.73%     94.91% # Bytes accessed per row activation
system.mem_ctrls.dram.bytesPerActivate::384-511          474      1.07%     95.98% # Bytes accessed per row activation
system.mem_ctrls.dram.bytesPerActivate::512-639          383      0.86%     96.84% # Bytes accessed per row activation
system.mem_ctrls.dram.bytesPerActivate::640-767          331      0.74%     97.58% # Bytes accessed per row activation
system.mem_ctrls.dram.bytesPerActivate::768-895          281      0.63%     98.22% # Bytes accessed per row activation
system.mem_ctrls.dram.bytesPerActivate::896-1023          276      0.62%     98.84% # Bytes accessed per row activation
system.mem_ctrls.dram.bytesPerActivate::1024-1151          518      1.16%    100.00% # Bytes accessed per row activation
system.mem_ctrls.dram.bytesPerActivate::total        44502                       # Bytes accessed per row activation
system.mem_ctrls.dram.bytesRead               2994816                       # Total number of bytes read from DRAM
system.mem_ctrls.dram.bytesWritten            2417984                       # Total number of bytes written to DRAM
system.mem_ctrls.dram.avgRdBW               15.288355                       # Average DRAM read bandwidth in MiBytes/s
system.mem_ctrls.dram.avgWrBW               12.343662                       # Average DRAM write bandwidth in MiBytes/s
system.mem_ctrls.dram.peakBW                 12800.00                       # Theoretical peak bandwidth in MiByte/s
system.mem_ctrls.dram.busUtil                    0.22                       # Data bus utilization in percentage
system.mem_ctrls.dram.busUtilRead                0.12                       # Data bus utilization in percentage for reads
system.mem_ctrls.dram.busUtilWrite               0.10                       # Data bus utilization in percentage for writes
system.mem_ctrls.dram.pageHitRate               47.38                       # Row buffer hit rate, read and write combined
system.mem_ctrls.dram.power_state.pwrStateResidencyTicks::UNDEFINED 195888703000                       # Cumulative time (in ticks) in various power states
system.mem_ctrls.dram.rank0.actEnergy       160592880                       # Energy for activate commands per rank (pJ)
system.mem_ctrls.dram.rank0.preEnergy        85353345                       # Energy for precharge commands per rank (pJ)
system.mem_ctrls.dram.rank0.readEnergy      167297340                       # Energy for read commands per rank (pJ)
system.mem_ctrls.dram.rank0.writeEnergy      98532720                       # Energy for write commands per rank (pJ)
system.mem_ctrls.dram.rank0.refreshEnergy 15463113120.000002                       # Energy for refresh commands per rank (pJ)
system.mem_ctrls.dram.rank0.actBackEnergy  29517235110                       # Energy for active background per rank (pJ)
system.mem_ctrls.dram.rank0.preBackEnergy  50364643200                       # Energy for precharge background per rank (pJ)
system.mem_ctrls.dram.rank0.actPowerDownEnergy            0                       # Energy for active power-down per rank (pJ)
system.mem_ctrls.dram.rank0.prePowerDownEnergy            0                       # Energy for precharge power-down per rank (pJ)
system.mem_ctrls.dram.rank0.selfRefreshEnergy            0                       # Energy for self refresh per rank (pJ)
system.mem_ctrls.dram.rank0.totalEnergy   95856767715                       # Total energy per rank (pJ)
system.mem_ctrls.dram.rank0.averagePower   489.343011                       # Core power per rank (mW)
system.mem_ctrls.dram.rank0.totalIdleTime            0                       # Total Idle time Per DRAM Rank
system.mem_ctrls.dram.rank0.pwrStateTime::IDLE 130609688250                       # Time in different power states
system.mem_ctrls.dram.rank0.pwrStateTime::REF   6541080000                       # Time in different power states
system.mem_ctrls.dram.rank0.pwrStateTime::SREF            0                       # Time in different power states
system.mem_ctrls.dram.rank0.pwrStateTime::PRE_PDN            0                       # Time in different power states
system.mem_ctrls.dram.rank0.pwrStateTime::ACT  58737934750                       # Time in different power states
system.mem_ctrls.dram.rank0.pwrStateTime::ACT_PDN            0                       # Time in different power states
system.mem_ctrls.dram.rank1.actEnergy       157158540                       # Energy for activate commands per rank (pJ)
system.mem_ctrls.dram.rank1.preEnergy        83531745                       # Energy for precharge commands per rank (pJ)
system.mem_ctrls.dram.rank1.readEnergy      166811820                       # Energy for read commands per rank (pJ)
system.mem_ctrls.dram.rank1.writeEnergy      98684100                       # Energy for write commands per rank (pJ)
system.mem_ctrls.dram.rank1.refreshEnergy 15463113120.000002                       # Energy for refresh commands per rank (pJ)
system.mem_ctrls.dram.rank1.actBackEnergy  29640976980                       # Energy for active background per rank (pJ)
system.mem_ctrls.dram.rank1.preBackEnergy  50260439520                       # Energy for precharge background per rank (pJ)
system.mem_ctrls.dram.rank1.actPowerDownEnergy            0                       # Energy for active power-down per rank (pJ)
system.mem_ctrls.dram.rank1.prePowerDownEnergy            0                       # Energy for precharge power-down per rank (pJ)
system.mem_ctrls.dram.rank1.selfRefreshEnergy            0                       # Energy for self refresh per rank (pJ)
system.mem_ctrls.dram.rank1.totalEnergy   95870715825                       # Total energy per rank (pJ)
system.mem_ctrls.dram.rank1.averagePower   489.414215                       # Core power per rank (mW)
system.mem_ctrls.dram.rank1.totalIdleTime            0                       # Total Idle time Per DRAM Rank
system.mem_ctrls.dram.rank1.pwrStateTime::IDLE 130337108500                       # Time in different power states
system.mem_ctrls.dram.rank1.pwrStateTime::REF   6541080000                       # Time in different power states
system.mem_ctrls.dram.rank1.pwrStateTime::SREF            0                       # Time in different power states
system.mem_ctrls.dram.rank1.pwrStateTime::PRE_PDN            0                       # Time in different power states
system.mem_ctrls.dram.rank1.pwrStateTime::ACT  59010514500                       # Time in different power states
system.mem_ctrls.dram.rank1.pwrStateTime::ACT_PDN            0                       # Time in different power states
system.mem_ctrls.power_state.pwrStateResidencyTicks::UNDEFINED 195888703000                       # Cumulative time (in ticks) in various power states
system.membus.trans_dist::ReadResp               8002                       # Transaction distribution
system.membus.trans_dist::WritebackDirty        37803                       # Transaction distribution
system.membus.trans_dist::CleanEvict              730                       # Transaction distribution
system.membus.trans_dist::ReadExReq             38812                       # Transaction distribution
system.membus.trans_dist::ReadExResp            38812                       # Transaction distribution
system.membus.trans_dist::ReadSharedReq          8002                       # Transaction distribution
system.membus.pkt_count_system.l2.mem_side_port::system.mem_ctrls.port       132161                       # Packet count per connected requestor and responder (bytes)
system.membus.pkt_count::total                 132161                       # Packet count per connected requestor and responder (bytes)
system.membus.pkt_size_system.l2.mem_side_port::system.mem_ctrls.port      5415488                       # Cumulative packet size per connected requestor and responder (bytes)
system.membus.pkt_size::total                 5415488                       # Cumulative packet size per connected requestor and responder (bytes)
system.membus.snoops                                0                       # Total snoops (count)
system.membus.snoopTraffic                          0                       # Total snoop traffic (bytes)
system.membus.snoop_fanout::samples             46814                       # Request fanout histogram
system.membus.snoop_fanout::mean                    0                       # Request fanout histogram
system.membus.snoop_fanout::stdev                   0                       # Request fanout histogram
system.membus.snoop_fanout::underflows              0      0.00%      0.00% # Request fanout histogram
system.membus.snoop_fanout::0                   46814    100.00%    100.00% # Request fanout histogram
system.membus.snoop_fanout::1                       0      0.00%    100.00% # Request fanout histogram
system.membus.snoop_fanout::overflows               0      0.00%    100.00% # Request fanout histogram
system.membus.snoop_fanout::min_value               0                       # Request fanout histogram
system.membus.snoop_fanout::max_value               0                       # Request fanout histogram
system.membus.snoop_fanout::total               46814                       # Request fanout histogram
system.membus.power_state.pwrStateResidencyTicks::UNDEFINED 195888703000                       # Cumulative time (in ticks) in various power states
system.membus.reqLayer0.occupancy           236559000                       # Layer occupancy (ticks)
system.membus.reqLayer0.utilization               0.1                       # Layer utilization (%)
system.membus.respLayer1.occupancy          254294250                       # Layer occupancy (ticks)
system.membus.respLayer1.utilization              0.1                       # Layer utilization (%)
system.tol2bus.trans_dist::ReadResp           3816013                       # Transaction distribution
system.tol2bus.trans_dist::WritebackDirty        97917                       # Transaction distribution
system.tol2bus.trans_dist::WritebackClean      3787319                       # Transaction distribution
system.tol2bus.trans_dist::CleanEvict           12081                       # Transaction distribution
system.tol2bus.trans_dist::ReadExReq            43157                       # Transaction distribution
system.tol2bus.trans_dist::ReadExResp           43157                       # Transaction distribution
system.tol2bus.trans_dist::ReadCleanReq       3787445                       # Transaction distribution
system.tol2bus.trans_dist::ReadSharedReq        28568                       # Transaction distribution
system.tol2bus.pkt_count_system.cpu.icache.mem_side_port::system.l2.cpu_side_port     11362209                       # Packet count per connected requestor and responder (bytes)
system.tol2bus.pkt_count_system.cpu.dcache.mem_side_port::system.l2.cpu_side_port       214151                       # Packet count per connected requestor and responder (bytes)
system.tol2bus.pkt_count::total              11576360                       # Packet count per connected requestor and responder (bytes)
system.tol2bus.pkt_size_system.cpu.icache.mem_side_port::system.l2.cpu_side_port    484784896                       # Cumulative packet size per connected requestor and responder (bytes)
system.tol2bus.pkt_size_system.cpu.dcache.mem_side_port::system.l2.cpu_side_port      8437696                       # Cumulative packet size per connected requestor and responder (bytes)
system.tol2bus.pkt_size::total              493222592                       # Cumulative packet size per connected requestor and responder (bytes)
system.tol2bus.snoops                           39297                       # Total snoops (count)
system.tol2bus.snoopTraffic                   2419392                       # Total snoop traffic (bytes)
system.tol2bus.snoop_fanout::samples          3898467                       # Request fanout histogram
system.tol2bus.snoop_fanout::mean            0.065763                       # Request fanout histogram
system.tol2bus.snoop_fanout::stdev           0.247867                       # Request fanout histogram
system.tol2bus.snoop_fanout::underflows             0      0.00%      0.00% # Request fanout histogram
system.tol2bus.snoop_fanout::0                3642094     93.42%     93.42% # Request fanout histogram
system.tol2bus.snoop_fanout::1                 256373      6.58%    100.00% # Request fanout histogram
system.tol2bus.snoop_fanout::2                      0      0.00%    100.00% # Request fanout histogram
system.tol2bus.snoop_fanout::overflows              0      0.00%    100.00% # Request fanout histogram
system.tol2bus.snoop_fanout::min_value              0                       # Request fanout histogram
system.tol2bus.snoop_fanout::max_value              1                       # Request fanout histogram
system.tol2bus.snoop_fanout::total            3898467                       # Request fanout histogram
system.tol2bus.power_state.pwrStateResidencyTicks::UNDEFINED 195888703000                       # Cumulative time (in ticks) in various power states
system.tol2bus.reqLayer0.occupancy        15412056000                       # Layer occupancy (ticks)
system.tol2bus.reqLayer0.utilization              7.9                       # Layer utilization (%)
system.tol2bus.respLayer0.occupancy       11362344990                       # Layer occupancy (ticks)
system.tol2bus.respLayer0.utilization             5.8                       # Layer utilization (%)
system.tol2bus.respLayer1.occupancy         215200974                       # Layer occupancy (ticks)
system.tol2bus.respLayer1.utilization             0.1                       # Layer utilization (%)
system.voltage_domain.voltage                       1                       # Voltage in Volts

---------- End Simulation Statistics   ----------
