
---------- Begin Simulation Statistics ----------
final_tick                               117928224000                       # Number of ticks from beginning of simulation (restored from checkpoints and never reset)
host_inst_rate                                 427359                       # Simulator instruction rate (inst/s)
host_mem_usage                                 663508                       # Number of bytes of host memory used
host_op_rate                                   432072                       # Simulator op (including micro ops) rate (op/s)
host_seconds                                   234.00                       # Real time elapsed on the host
host_tick_rate                              503977128                       # Simulator tick rate (ticks/s)
sim_freq                                 1000000000000                       # Frequency of simulated ticks
sim_insts                                   100000000                       # Number of instructions simulated
sim_ops                                     101102842                       # Number of ops (including micro ops) simulated
sim_seconds                                  0.117928                       # Number of seconds simulated
sim_ticks                                117928224000                       # Number of ticks simulated
system.cpu.committedInsts                   100000000                       # Number of instructions committed
system.cpu.committedOps                     101102842                       # Number of ops (including micro ops) committed
system.cpu.cpi                               1.179282                       # CPI: cycles per instruction
system.cpu.discardedOps                        973808                       # Number of ops (including micro ops) which were discarded before commit
system.cpu.idleCycles                         2318132                       # Total number of cycles that the object has spent stopped
system.cpu.ipc                               0.847973                       # IPC: instructions per cycle
system.cpu.numCycles                        117928224                       # number of cpu cycles simulated
system.cpu.numFetchSuspends                         0                       # Number of times Execute suspended instruction fetching
system.cpu.numWorkItemsCompleted                    0                       # number of work items this cpu completed
system.cpu.numWorkItemsStarted                      0                       # number of work items this cpu started
system.cpu.op_class_0::No_OpClass                   0      0.00%      0.00% # Class of committed instruction
system.cpu.op_class_0::IntAlu                55116018     54.51%     54.51% # Class of committed instruction
system.cpu.op_class_0::IntMult                 167845      0.17%     54.68% # Class of committed instruction
system.cpu.op_class_0::IntDiv                       0      0.00%     54.68% # Class of committed instruction
system.cpu.op_class_0::FloatAdd                     0      0.00%     54.68% # Class of committed instruction
system.cpu.op_class_0::FloatCmp                     0      0.00%     54.68% # Class of committed instruction
system.cpu.op_class_0::FloatCvt                     0      0.00%     54.68% # Class of committed instruction
system.cpu.op_class_0::FloatMult                    0      0.00%     54.68% # Class of committed instruction
system.cpu.op_class_0::FloatMultAcc                 0      0.00%     54.68% # Class of committed instruction
system.cpu.op_class_0::FloatDiv                     0      0.00%     54.68% # Class of committed instruction
system.cpu.op_class_0::FloatMisc                    0      0.00%     54.68% # Class of committed instruction
system.cpu.op_class_0::FloatSqrt                    0      0.00%     54.68% # Class of committed instruction
system.cpu.op_class_0::SimdAdd                    376      0.00%     54.68% # Class of committed instruction
system.cpu.op_class_0::SimdAddAcc                   0      0.00%     54.68% # Class of committed instruction
system.cpu.op_class_0::SimdAlu                    466      0.00%     54.68% # Class of committed instruction
system.cpu.op_class_0::SimdCmp                    378      0.00%     54.68% # Class of committed instruction
system.cpu.op_class_0::SimdCvt                      0      0.00%     54.68% # Class of committed instruction
system.cpu.op_class_0::SimdMisc                    53      0.00%     54.68% # Class of committed instruction
system.cpu.op_class_0::SimdMult                     0      0.00%     54.68% # Class of committed instruction
system.cpu.op_class_0::SimdMultAcc                  0      0.00%     54.68% # Class of committed instruction
system.cpu.op_class_0::SimdShift                    0      0.00%     54.68% # Class of committed instruction
system.cpu.op_class_0::SimdShiftAcc                 0      0.00%     54.68% # Class of committed instruction
system.cpu.op_class_0::SimdDiv                      0      0.00%     54.68% # Class of committed instruction
system.cpu.op_class_0::SimdSqrt                     0      0.00%     54.68% # Class of committed instruction
system.cpu.op_class_0::SimdFloatAdd            267609      0.26%     54.95% # Class of committed instruction
system.cpu.op_class_0::SimdFloatAlu                 0      0.00%     54.95% # Class of committed instruction
system.cpu.op_class_0::SimdFloatCmp            259630      0.26%     55.20% # Class of committed instruction
system.cpu.op_class_0::SimdFloatCvt            161456      0.16%     55.36% # Class of committed instruction
system.cpu.op_class_0::SimdFloatDiv             54308      0.05%     55.42% # Class of committed instruction
system.cpu.op_class_0::SimdFloatMisc           483616      0.48%     55.90% # Class of committed instruction
system.cpu.op_class_0::SimdFloatMult            33524      0.03%     55.93% # Class of committed instruction
system.cpu.op_class_0::SimdFloatMultAcc         11115      0.01%     55.94% # Class of committed instruction
system.cpu.op_class_0::SimdFloatSqrt                0      0.00%     55.94% # Class of committed instruction
system.cpu.op_class_0::SimdReduceAdd                0      0.00%     55.94% # Class of committed instruction
system.cpu.op_class_0::SimdReduceAlu                0      0.00%     55.94% # Class of committed instruction
system.cpu.op_class_0::SimdReduceCmp                0      0.00%     55.94% # Class of committed instruction
system.cpu.op_class_0::SimdFloatReduceAdd            0      0.00%     55.94% # Class of committed instruction
system.cpu.op_class_0::SimdFloatReduceCmp            0      0.00%     55.94% # Class of committed instruction
system.cpu.op_class_0::SimdAes                      0      0.00%     55.94% # Class of committed instruction
system.cpu.op_class_0::SimdAesMix                   0      0.00%     55.94% # Class of committed instruction
system.cpu.op_class_0::SimdSha1Hash                 0      0.00%     55.94% # Class of committed instruction
system.cpu.op_class_0::SimdSha1Hash2                0      0.00%     55.94% # Class of committed instruction
system.cpu.op_class_0::SimdSha256Hash               0      0.00%     55.94% # Class of committed instruction
system.cpu.op_class_0::SimdSha256Hash2              0      0.00%     55.94% # Class of committed instruction
system.cpu.op_class_0::SimdShaSigma2                0      0.00%     55.94% # Class of committed instruction
system.cpu.op_class_0::SimdShaSigma3                0      0.00%     55.94% # Class of committed instruction
system.cpu.op_class_0::SimdPredAlu                  0      0.00%     55.94% # Class of committed instruction
system.cpu.op_class_0::MemRead               38167367     37.75%     93.69% # Class of committed instruction
system.cpu.op_class_0::MemWrite               6379081      6.31%    100.00% # Class of committed instruction
system.cpu.op_class_0::FloatMemRead                 0      0.00%    100.00% # Class of committed instruction
system.cpu.op_class_0::FloatMemWrite                0      0.00%    100.00% # Class of committed instruction
system.cpu.op_class_0::IprAccess                    0      0.00%    100.00% # Class of committed instruction
system.cpu.op_class_0::InstPrefetch                 0      0.00%    100.00% # Class of committed instruction
system.cpu.op_class_0::total                101102842                       # Class of committed instruction
system.cpu.tickCycles                       115610092                       # Number of cycles that the object actually ticked
system.cpu.workload.numSyscalls                    32                       # Number of system calls
system.membus.snoop_filter.hit_multi_requests            0                       # Number of requests hitting in the snoop filter with multiple (>1) holders of the requested data.
system.membus.snoop_filter.hit_multi_snoops            0                       # Number of snoops hitting in the snoop filter with multiple (>1) holders of the requested data.
system.membus.snoop_filter.hit_single_requests          883                       # Number of requests hitting in the snoop filter with a single holder of the requested data.
system.membus.snoop_filter.hit_single_snoops            0                       # Number of snoops hitting in the snoop filter with a single holder of the requested data.
system.membus.snoop_filter.tot_requests          3067                       # Total number of requests made to the snoop filter.
system.membus.snoop_filter.tot_snoops               0                       # Total number of snoops made to the snoop filter.
system.tol2bus.snoop_filter.hit_multi_requests         1617                       # Number of requests hitting in the snoop filter with multiple (>1) holders of the requested data.
system.tol2bus.snoop_filter.hit_multi_snoops           37                       # Number of snoops hitting in the snoop filter with multiple (>1) holders of the requested data.
system.tol2bus.snoop_filter.hit_single_requests        30395                       # Number of requests hitting in the snoop filter with a single holder of the requested data.
system.tol2bus.snoop_filter.hit_single_snoops          419                       # Number of snoops hitting in the snoop filter with a single holder of the requested data.
system.tol2bus.snoop_filter.tot_requests        61154                       # Total number of requests made to the snoop filter.
system.tol2bus.snoop_filter.tot_snoops            456                       # Total number of snoops made to the snoop filter.
system.clk_domain.clock                          1000                       # Clock period in ticks
system.cpu.branchPred.lookups                 6503318                       # Number of BP lookups
system.cpu.branchPred.condPredicted           5095285                       # Number of conditional branches predicted
system.cpu.branchPred.condIncorrect            349123                       # Number of conditional branches incorrect
system.cpu.branchPred.BTBLookups              4085738                       # Number of BTB lookups
system.cpu.branchPred.BTBHits                 4078223                       # Number of BTB hits
system.cpu.branchPred.BTBHitPct             99.816068                       # BTB Hit Percentage
system.cpu.branchPred.RASUsed                  312602                       # Number of times the RAS was used to get a target.
system.cpu.branchPred.RASIncorrect                  4                       # Number of incorrect RAS predictions.
system.cpu.branchPred.indirectLookups          675698                       # Number of indirect predictor lookups.
system.cpu.branchPred.indirectHits             102885                       # Number of indirect target hits.
system.cpu.branchPred.indirectMisses           572813                       # Number of indirect misses.
system.cpu.branchPred.indirectMispredicted        37444                       # Number of mispredicted indirect branches.
system.cpu.dcache.demand_hits::.cpu.data     43870065                       # number of demand (read+write) hits
system.cpu.dcache.demand_hits::total         43870065                       # number of demand (read+write) hits
system.cpu.dcache.overall_hits::.cpu.data     43878766                       # number of overall hits
system.cpu.dcache.overall_hits::total        43878766                       # number of overall hits
system.cpu.dcache.demand_misses::.cpu.data        26679                       # number of demand (read+write) misses
system.cpu.dcache.demand_misses::total          26679                       # number of demand (read+write) misses
system.cpu.dcache.overall_misses::.cpu.data        26730                       # number of overall misses
system.cpu.dcache.overall_misses::total         26730                       # number of overall misses
system.cpu.dcache.demand_miss_latency::.cpu.data    900684000                       # number of demand (read+write) miss cycles
system.cpu.dcache.demand_miss_latency::total    900684000                       # number of demand (read+write) miss cycles
system.cpu.dcache.overall_miss_latency::.cpu.data    900684000                       # number of overall miss cycles
system.cpu.dcache.overall_miss_latency::total    900684000                       # number of overall miss cycles
system.cpu.dcache.demand_accesses::.cpu.data     43896744                       # number of demand (read+write) accesses
system.cpu.dcache.demand_accesses::total     43896744                       # number of demand (read+write) accesses
system.cpu.dcache.overall_accesses::.cpu.data     43905496                       # number of overall (read+write) accesses
system.cpu.dcache.overall_accesses::total     43905496                       # number of overall (read+write) accesses
system.cpu.dcache.demand_miss_rate::.cpu.data     0.000608                       # miss rate for demand accesses
system.cpu.dcache.demand_miss_rate::total     0.000608                       # miss rate for demand accesses
system.cpu.dcache.overall_miss_rate::.cpu.data     0.000609                       # miss rate for overall accesses
system.cpu.dcache.overall_miss_rate::total     0.000609                       # miss rate for overall accesses
system.cpu.dcache.demand_avg_miss_latency::.cpu.data 33760.035983                       # average overall miss latency
system.cpu.dcache.demand_avg_miss_latency::total 33760.035983                       # average overall miss latency
system.cpu.dcache.overall_avg_miss_latency::.cpu.data 33695.622896                       # average overall miss latency
system.cpu.dcache.overall_avg_miss_latency::total 33695.622896                       # average overall miss latency
system.cpu.dcache.blocked_cycles::no_mshrs            0                       # number of cycles access was blocked
system.cpu.dcache.blocked_cycles::no_targets            0                       # number of cycles access was blocked
system.cpu.dcache.blocked::no_mshrs                 0                       # number of cycles access was blocked
system.cpu.dcache.blocked::no_targets               0                       # number of cycles access was blocked
system.cpu.dcache.avg_blocked_cycles::no_mshrs          nan                       # average number of cycles each access was blocked
system.cpu.dcache.avg_blocked_cycles::no_targets          nan                       # average number of cycles each access was blocked
system.cpu.dcache.writebacks::.writebacks        23108                       # number of writebacks
system.cpu.dcache.writebacks::total             23108                       # number of writebacks
system.cpu.dcache.demand_mshr_hits::.cpu.data         1820                       # number of demand (read+write) MSHR hits
system.cpu.dcache.demand_mshr_hits::total         1820                       # number of demand (read+write) MSHR hits
system.cpu.dcache.overall_mshr_hits::.cpu.data         1820                       # number of overall MSHR hits
system.cpu.dcache.overall_mshr_hits::total         1820                       # number of overall MSHR hits
system.cpu.dcache.demand_mshr_misses::.cpu.data        24859                       # number of demand (read+write) MSHR misses
system.cpu.dcache.demand_mshr_misses::total        24859                       # number of demand (read+write) MSHR misses
system.cpu.dcache.overall_mshr_misses::.cpu.data        24885                       # number of overall MSHR misses
system.cpu.dcache.overall_mshr_misses::total        24885                       # number of overall MSHR misses
system.cpu.dcache.demand_mshr_miss_latency::.cpu.data    743416000                       # number of demand (read+write) MSHR miss cycles
system.cpu.dcache.demand_mshr_miss_latency::total    743416000                       # number of demand (read+write) MSHR miss cycles
system.cpu.dcache.overall_mshr_miss_latency::.cpu.data    746442000                       # number of overall MSHR miss cycles
system.cpu.dcache.overall_mshr_miss_latency::total    746442000                       # number of overall MSHR miss cycles
system.cpu.dcache.demand_mshr_miss_rate::.cpu.data     0.000566                       # mshr miss rate for demand accesses
system.cpu.dcache.demand_mshr_miss_rate::total     0.000566                       # mshr miss rate for demand accesses
system.cpu.dcache.overall_mshr_miss_rate::.cpu.data     0.000567                       # mshr miss rate for overall accesses
system.cpu.dcache.overall_mshr_miss_rate::total     0.000567                       # mshr miss rate for overall accesses
system.cpu.dcache.demand_avg_mshr_miss_latency::.cpu.data 29905.305925                       # average overall mshr miss latency
system.cpu.dcache.demand_avg_mshr_miss_latency::total 29905.305925                       # average overall mshr miss latency
system.cpu.dcache.overall_avg_mshr_miss_latency::.cpu.data 29995.660036                       # average overall mshr miss latency
system.cpu.dcache.overall_avg_mshr_miss_latency::total 29995.660036                       # average overall mshr miss latency
system.cpu.dcache.replacements                  24757                       # number of replacements
system.cpu.dcache.ReadReq_hits::.cpu.data     37568796                       # number of ReadReq hits
system.cpu.dcache.ReadReq_hits::total        37568796                       # number of ReadReq hits
system.cpu.dcache.ReadReq_misses::.cpu.data         7182                       # number of ReadReq misses
system.cpu.dcache.ReadReq_misses::total          7182                       # number of ReadReq misses
system.cpu.dcache.ReadReq_miss_latency::.cpu.data    231558000                       # number of ReadReq miss cycles
system.cpu.dcache.ReadReq_miss_latency::total    231558000                       # number of ReadReq miss cycles
system.cpu.dcache.ReadReq_accesses::.cpu.data     37575978                       # number of ReadReq accesses(hits+misses)
system.cpu.dcache.ReadReq_accesses::total     37575978                       # number of ReadReq accesses(hits+misses)
system.cpu.dcache.ReadReq_miss_rate::.cpu.data     0.000191                       # miss rate for ReadReq accesses
system.cpu.dcache.ReadReq_miss_rate::total     0.000191                       # miss rate for ReadReq accesses
system.cpu.dcache.ReadReq_avg_miss_latency::.cpu.data 32241.436926                       # average ReadReq miss latency
system.cpu.dcache.ReadReq_avg_miss_latency::total 32241.436926                       # average ReadReq miss latency
system.cpu.dcache.ReadReq_mshr_hits::.cpu.data          147                       # number of ReadReq MSHR hits
system.cpu.dcache.ReadReq_mshr_hits::total          147                       # number of ReadReq MSHR hits
system.cpu.dcache.ReadReq_mshr_misses::.cpu.data         7035                       # number of ReadReq MSHR misses
system.cpu.dcache.ReadReq_mshr_misses::total         7035                       # number of ReadReq MSHR misses
system.cpu.dcache.ReadReq_mshr_miss_latency::.cpu.data    210852000                       # number of ReadReq MSHR miss cycles
system.cpu.dcache.ReadReq_mshr_miss_latency::total    210852000                       # number of ReadReq MSHR miss cycles
system.cpu.dcache.ReadReq_mshr_miss_rate::.cpu.data     0.000187                       # mshr miss rate for ReadReq accesses
system.cpu.dcache.ReadReq_mshr_miss_rate::total     0.000187                       # mshr miss rate for ReadReq accesses
system.cpu.dcache.ReadReq_avg_mshr_miss_latency::.cpu.data 29971.855011                       # average ReadReq mshr miss latency
system.cpu.dcache.ReadReq_avg_mshr_miss_latency::total 29971.855011                       # average ReadReq mshr miss latency
system.cpu.dcache.WriteReq_hits::.cpu.data      6301269                       # number of WriteReq hits
system.cpu.dcache.WriteReq_hits::total        6301269                       # number of WriteReq hits
system.cpu.dcache.WriteReq_misses::.cpu.data        19497                       # number of WriteReq misses
system.cpu.dcache.WriteReq_misses::total        19497                       # number of WriteReq misses
system.cpu.dcache.WriteReq_miss_latency::.cpu.data    669126000                       # number of WriteReq miss cycles
system.cpu.dcache.WriteReq_miss_latency::total    669126000                       # number of WriteReq miss cycles
system.cpu.dcache.WriteReq_accesses::.cpu.data      6320766                       # number of WriteReq accesses(hits+misses)
system.cpu.dcache.WriteReq_accesses::total      6320766                       # number of WriteReq accesses(hits+misses)
system.cpu.dcache.WriteReq_miss_rate::.cpu.data     0.003085                       # miss rate for WriteReq accesses
system.cpu.dcache.WriteReq_miss_rate::total     0.003085                       # miss rate for WriteReq accesses
system.cpu.dcache.WriteReq_avg_miss_latency::.cpu.data 34319.433759                       # average WriteReq miss latency
system.cpu.dcache.WriteReq_avg_miss_latency::total 34319.433759                       # average WriteReq miss latency
system.cpu.dcache.WriteReq_mshr_hits::.cpu.data         1673                       # number of WriteReq MSHR hits
system.cpu.dcache.WriteReq_mshr_hits::total         1673                       # number of WriteReq MSHR hits
system.cpu.dcache.WriteReq_mshr_misses::.cpu.data        17824                       # number of WriteReq MSHR misses
system.cpu.dcache.WriteReq_mshr_misses::total        17824                       # number of WriteReq MSHR misses
system.cpu.dcache.WriteReq_mshr_miss_latency::.cpu.data    532564000                       # number of WriteReq MSHR miss cycles
system.cpu.dcache.WriteReq_mshr_miss_latency::total    532564000                       # number of WriteReq MSHR miss cycles
system.cpu.dcache.WriteReq_mshr_miss_rate::.cpu.data     0.002820                       # mshr miss rate for WriteReq accesses
system.cpu.dcache.WriteReq_mshr_miss_rate::total     0.002820                       # mshr miss rate for WriteReq accesses
system.cpu.dcache.WriteReq_avg_mshr_miss_latency::.cpu.data 29879.039497                       # average WriteReq mshr miss latency
system.cpu.dcache.WriteReq_avg_mshr_miss_latency::total 29879.039497                       # average WriteReq mshr miss latency
system.cpu.dcache.SoftPFReq_hits::.cpu.data         8701                       # number of SoftPFReq hits
system.cpu.dcache.SoftPFReq_hits::total          8701                       # number of SoftPFReq hits
system.cpu.dcache.SoftPFReq_misses::.cpu.data           51                       # number of SoftPFReq misses
system.cpu.dcache.SoftPFReq_misses::total           51                       # number of SoftPFReq misses
system.cpu.dcache.SoftPFReq_accesses::.cpu.data         8752                       # number of SoftPFReq accesses(hits+misses)
system.cpu.dcache.SoftPFReq_accesses::total         8752                       # number of SoftPFReq accesses(hits+misses)
system.cpu.dcache.SoftPFReq_miss_rate::.cpu.data     0.005827                       # miss rate for SoftPFReq accesses
system.cpu.dcache.SoftPFReq_miss_rate::total     0.005827                       # miss rate for SoftPFReq accesses
system.cpu.dcache.SoftPFReq_mshr_misses::.cpu.data           26                       # number of SoftPFReq MSHR misses
system.cpu.dcache.SoftPFReq_mshr_misses::total           26                       # number of SoftPFReq MSHR misses
system.cpu.dcache.SoftPFReq_mshr_miss_latency::.cpu.data      3026000                       # number of SoftPFReq MSHR miss cycles
system.cpu.dcache.SoftPFReq_mshr_miss_latency::total      3026000                       # number of SoftPFReq MSHR miss cycles
system.cpu.dcache.SoftPFReq_mshr_miss_rate::.cpu.data     0.002971                       # mshr miss rate for SoftPFReq accesses
system.cpu.dcache.SoftPFReq_mshr_miss_rate::total     0.002971                       # mshr miss rate for SoftPFReq accesses
system.cpu.dcache.SoftPFReq_avg_mshr_miss_latency::.cpu.data 116384.615385                       # average SoftPFReq mshr miss latency
system.cpu.dcache.SoftPFReq_avg_mshr_miss_latency::total 116384.615385                       # average SoftPFReq mshr miss latency
system.cpu.dcache.LoadLockedReq_hits::.cpu.data          166                       # number of LoadLockedReq hits
system.cpu.dcache.LoadLockedReq_hits::total          166                       # number of LoadLockedReq hits
system.cpu.dcache.LoadLockedReq_accesses::.cpu.data          166                       # number of LoadLockedReq accesses(hits+misses)
system.cpu.dcache.LoadLockedReq_accesses::total          166                       # number of LoadLockedReq accesses(hits+misses)
system.cpu.dcache.StoreCondReq_hits::.cpu.data          166                       # number of StoreCondReq hits
system.cpu.dcache.StoreCondReq_hits::total          166                       # number of StoreCondReq hits
system.cpu.dcache.StoreCondReq_accesses::.cpu.data          166                       # number of StoreCondReq accesses(hits+misses)
system.cpu.dcache.StoreCondReq_accesses::total          166                       # number of StoreCondReq accesses(hits+misses)
system.cpu.dcache.power_state.pwrStateResidencyTicks::UNDEFINED 117928224000                       # Cumulative time (in ticks) in various power states
system.cpu.dcache.tags.tagsinuse           127.917168                       # Cycle average of tags in use
system.cpu.dcache.tags.total_refs            43903983                       # Total number of references to valid blocks.
system.cpu.dcache.tags.sampled_refs             24885                       # Sample count of references to valid blocks.
system.cpu.dcache.tags.avg_refs           1764.274985                       # Average number of references to valid blocks.
system.cpu.dcache.tags.warmup_cycle            258000                       # Cycle when the warmup percentage was hit.
system.cpu.dcache.tags.occ_blocks::.cpu.data   127.917168                       # Average occupied blocks per requestor
system.cpu.dcache.tags.occ_percent::.cpu.data     0.999353                       # Average percentage of cache occupancy
system.cpu.dcache.tags.occ_percent::total     0.999353                       # Average percentage of cache occupancy
system.cpu.dcache.tags.occ_task_id_blocks::1024          128                       # Occupied blocks per task id
system.cpu.dcache.tags.age_task_id_blocks_1024::0            1                       # Occupied blocks per task id
system.cpu.dcache.tags.age_task_id_blocks_1024::1           19                       # Occupied blocks per task id
system.cpu.dcache.tags.age_task_id_blocks_1024::2           95                       # Occupied blocks per task id
system.cpu.dcache.tags.age_task_id_blocks_1024::3            3                       # Occupied blocks per task id
system.cpu.dcache.tags.age_task_id_blocks_1024::4           10                       # Occupied blocks per task id
system.cpu.dcache.tags.occ_task_id_percent::1024            1                       # Percentage of cache occupancy per task id
system.cpu.dcache.tags.tag_accesses         175648197                       # Number of tag accesses
system.cpu.dcache.tags.data_accesses        175648197                       # Number of data accesses
system.cpu.dcache.tags.power_state.pwrStateResidencyTicks::UNDEFINED 117928224000                       # Cumulative time (in ticks) in various power states
system.cpu.dtb.instHits                             0                       # ITB inst hits
system.cpu.dtb.instMisses                           0                       # ITB inst misses
system.cpu.dtb.readHits                             0                       # DTB read hits
system.cpu.dtb.readMisses                           0                       # DTB read misses
system.cpu.dtb.writeHits                            0                       # DTB write hits
system.cpu.dtb.writeMisses                          0                       # DTB write misses
system.cpu.dtb.inserts                              0                       # Number of times an entry is inserted into the TLB
system.cpu.dtb.flushTlb                             0                       # Number of times complete TLB was flushed
system.cpu.dtb.flushTlbMva                          0                       # Number of times TLB was flushed by MVA
system.cpu.dtb.flushTlbMvaAsid                      0                       # Number of times TLB was flushed by MVA & ASID
system.cpu.dtb.flushTlbAsid                         0                       # Number of times TLB was flushed by ASID
system.cpu.dtb.flushedEntries                       0                       # Number of entries that have been flushed from TLB
system.cpu.dtb.alignFaults                          0                       # Number of TLB faults due to alignment restrictions
system.cpu.dtb.prefetchFaults                       0                       # Number of TLB faults due to prefetch
system.cpu.dtb.domainFaults                         0                       # Number of TLB faults due to domain restrictions
system.cpu.dtb.permsFaults                          0                       # Number of TLB faults due to permissions restrictions
system.cpu.dtb.readAccesses                         0                       # DTB read accesses
system.cpu.dtb.writeAccesses                        0                       # DTB write accesses
system.cpu.dtb.instAccesses                         0                       # ITB inst accesses
system.cpu.dtb.hits                                 0                       # Total TLB (inst and data) hits
system.cpu.dtb.misses                               0                       # Total TLB (inst and data) misses
system.cpu.dtb.accesses                             0                       # Total TLB (inst and data) accesses
system.cpu.dtb.stage2_mmu.stage2_tlb.instHits            0                       # ITB inst hits
system.cpu.dtb.stage2_mmu.stage2_tlb.instMisses            0                       # ITB inst misses
system.cpu.dtb.stage2_mmu.stage2_tlb.readHits            0                       # DTB read hits
system.cpu.dtb.stage2_mmu.stage2_tlb.readMisses            0                       # DTB read misses
system.cpu.dtb.stage2_mmu.stage2_tlb.writeHits            0                       # DTB write hits
system.cpu.dtb.stage2_mmu.stage2_tlb.writeMisses            0                       # DTB write misses
system.cpu.dtb.stage2_mmu.stage2_tlb.inserts            0                       # Number of times an entry is inserted into the TLB
system.cpu.dtb.stage2_mmu.stage2_tlb.flushTlb            0                       # Number of times complete TLB was flushed
system.cpu.dtb.stage2_mmu.stage2_tlb.flushTlbMva            0                       # Number of times TLB was flushed by MVA
system.cpu.dtb.stage2_mmu.stage2_tlb.flushTlbMvaAsid            0                       # Number of times TLB was flushed by MVA & ASID
system.cpu.dtb.stage2_mmu.stage2_tlb.flushTlbAsid            0                       # Number of times TLB was flushed by ASID
system.cpu.dtb.stage2_mmu.stage2_tlb.flushedEntries            0                       # Number of entries that have been flushed from TLB
system.cpu.dtb.stage2_mmu.stage2_tlb.alignFaults            0                       # Number of TLB faults due to alignment restrictions
system.cpu.dtb.stage2_mmu.stage2_tlb.prefetchFaults            0                       # Number of TLB faults due to prefetch
system.cpu.dtb.stage2_mmu.stage2_tlb.domainFaults            0                       # Number of TLB faults due to domain restrictions
system.cpu.dtb.stage2_mmu.stage2_tlb.permsFaults            0                       # Number of TLB faults due to permissions restrictions
system.cpu.dtb.stage2_mmu.stage2_tlb.readAccesses            0                       # DTB read accesses
system.cpu.dtb.stage2_mmu.stage2_tlb.writeAccesses            0                       # DTB write accesses
system.cpu.dtb.stage2_mmu.stage2_tlb.instAccesses            0                       # ITB inst accesses
system.cpu.dtb.stage2_mmu.stage2_tlb.hits            0                       # Total TLB (inst and data) hits
system.cpu.dtb.stage2_mmu.stage2_tlb.misses            0                       # Total TLB (inst and data) misses
system.cpu.dtb.stage2_mmu.stage2_tlb.accesses            0                       # Total TLB (inst and data) accesses
system.cpu.dtb.stage2_mmu.stage2_tlb.walker.walks            0                       # Table walker walks requested
system.cpu.dtb.stage2_mmu.stage2_tlb.walker.requestOrigin_Requested::Data            0                       # Table walker requests started/completed, data/inst
system.cpu.dtb.stage2_mmu.stage2_tlb.walker.requestOrigin_Requested::Inst            0                       # Table walker requests started/completed, data/inst
system.cpu.dtb.stage2_mmu.stage2_tlb.walker.requestOrigin_Requested::total            0                       # Table walker requests started/completed, data/inst
system.cpu.dtb.stage2_mmu.stage2_tlb.walker.requestOrigin_Completed::Data            0                       # Table walker requests started/completed, data/inst
system.cpu.dtb.stage2_mmu.stage2_tlb.walker.requestOrigin_Completed::Inst            0                       # Table walker requests started/completed, data/inst
system.cpu.dtb.stage2_mmu.stage2_tlb.walker.requestOrigin_Completed::total            0                       # Table walker requests started/completed, data/inst
system.cpu.dtb.stage2_mmu.stage2_tlb.walker.requestOrigin::total            0                       # Table walker requests started/completed, data/inst
system.cpu.dtb.stage2_mmu.stage2_tlb.walker.power_state.pwrStateResidencyTicks::UNDEFINED 117928224000                       # Cumulative time (in ticks) in various power states
system.cpu.dtb.walker.walks                         0                       # Table walker walks requested
system.cpu.dtb.walker.requestOrigin_Requested::Data            0                       # Table walker requests started/completed, data/inst
system.cpu.dtb.walker.requestOrigin_Requested::Inst            0                       # Table walker requests started/completed, data/inst
system.cpu.dtb.walker.requestOrigin_Requested::total            0                       # Table walker requests started/completed, data/inst
system.cpu.dtb.walker.requestOrigin_Completed::Data            0                       # Table walker requests started/completed, data/inst
system.cpu.dtb.walker.requestOrigin_Completed::Inst            0                       # Table walker requests started/completed, data/inst
system.cpu.dtb.walker.requestOrigin_Completed::total            0                       # Table walker requests started/completed, data/inst
system.cpu.dtb.walker.requestOrigin::total            0                       # Table walker requests started/completed, data/inst
system.cpu.dtb.walker.power_state.pwrStateResidencyTicks::UNDEFINED 117928224000                       # Cumulative time (in ticks) in various power states
system.cpu.fetch2.intInstructions            48927621                       # Number of integer instructions successfully decoded
system.cpu.fetch2.fpInstructions                    0                       # Number of floating point instructions successfully decoded
system.cpu.fetch2.vecInstructions                   0                       # Number of SIMD instructions successfully decoded
system.cpu.fetch2.loadInstructions           40583261                       # Number of memory load instructions successfully decoded
system.cpu.fetch2.storeInstructions           6266781                       # Number of memory store instructions successfully decoded
system.cpu.fetch2.amoInstructions                   0                       # Number of memory atomic instructions successfully decoded
system.cpu.icache.demand_hits::.cpu.inst     14266078                       # number of demand (read+write) hits
system.cpu.icache.demand_hits::total         14266078                       # number of demand (read+write) hits
system.cpu.icache.overall_hits::.cpu.inst     14266078                       # number of overall hits
system.cpu.icache.overall_hits::total        14266078                       # number of overall hits
system.cpu.icache.demand_misses::.cpu.inst         5876                       # number of demand (read+write) misses
system.cpu.icache.demand_misses::total           5876                       # number of demand (read+write) misses
system.cpu.icache.overall_misses::.cpu.inst         5876                       # number of overall misses
system.cpu.icache.overall_misses::total          5876                       # number of overall misses
system.cpu.icache.demand_miss_latency::.cpu.inst    237566000                       # number of demand (read+write) miss cycles
system.cpu.icache.demand_miss_latency::total    237566000                       # number of demand (read+write) miss cycles
system.cpu.icache.overall_miss_latency::.cpu.inst    237566000                       # number of overall miss cycles
system.cpu.icache.overall_miss_latency::total    237566000                       # number of overall miss cycles
system.cpu.icache.demand_accesses::.cpu.inst     14271954                       # number of demand (read+write) accesses
system.cpu.icache.demand_accesses::total     14271954                       # number of demand (read+write) accesses
system.cpu.icache.overall_accesses::.cpu.inst     14271954                       # number of overall (read+write) accesses
system.cpu.icache.overall_accesses::total     14271954                       # number of overall (read+write) accesses
system.cpu.icache.demand_miss_rate::.cpu.inst     0.000412                       # miss rate for demand accesses
system.cpu.icache.demand_miss_rate::total     0.000412                       # miss rate for demand accesses
system.cpu.icache.overall_miss_rate::.cpu.inst     0.000412                       # miss rate for overall accesses
system.cpu.icache.overall_miss_rate::total     0.000412                       # miss rate for overall accesses
system.cpu.icache.demand_avg_miss_latency::.cpu.inst 40429.884275                       # average overall miss latency
system.cpu.icache.demand_avg_miss_latency::total 40429.884275                       # average overall miss latency
system.cpu.icache.overall_avg_miss_latency::.cpu.inst 40429.884275                       # average overall miss latency
system.cpu.icache.overall_avg_miss_latency::total 40429.884275                       # average overall miss latency
system.cpu.icache.blocked_cycles::no_mshrs            0                       # number of cycles access was blocked
system.cpu.icache.blocked_cycles::no_targets            0                       # number of cycles access was blocked
system.cpu.icache.blocked::no_mshrs                 0                       # number of cycles access was blocked
system.cpu.icache.blocked::no_targets               0                       # number of cycles access was blocked
system.cpu.icache.avg_blocked_cycles::no_mshrs          nan                       # average number of cycles each access was blocked
system.cpu.icache.avg_blocked_cycles::no_targets          nan                       # average number of cycles each access was blocked
system.cpu.icache.writebacks::.writebacks         5636                       # number of writebacks
system.cpu.icache.writebacks::total              5636                       # number of writebacks
system.cpu.icache.demand_mshr_misses::.cpu.inst         5876                       # number of demand (read+write) MSHR misses
system.cpu.icache.demand_mshr_misses::total         5876                       # number of demand (read+write) MSHR misses
system.cpu.icache.overall_mshr_misses::.cpu.inst         5876                       # number of overall MSHR misses
system.cpu.icache.overall_mshr_misses::total         5876                       # number of overall MSHR misses
system.cpu.icache.demand_mshr_miss_latency::.cpu.inst    225814000                       # number of demand (read+write) MSHR miss cycles
system.cpu.icache.demand_mshr_miss_latency::total    225814000                       # number of demand (read+write) MSHR miss cycles
system.cpu.icache.overall_mshr_miss_latency::.cpu.inst    225814000                       # number of overall MSHR miss cycles
system.cpu.icache.overall_mshr_miss_latency::total    225814000                       # number of overall MSHR miss cycles
system.cpu.icache.demand_mshr_miss_rate::.cpu.inst     0.000412                       # mshr miss rate for demand accesses
system.cpu.icache.demand_mshr_miss_rate::total     0.000412                       # mshr miss rate for demand accesses
system.cpu.icache.overall_mshr_miss_rate::.cpu.inst     0.000412                       # mshr miss rate for overall accesses
system.cpu.icache.overall_mshr_miss_rate::total     0.000412                       # mshr miss rate for overall accesses
system.cpu.icache.demand_avg_mshr_miss_latency::.cpu.inst 38429.884275                       # average overall mshr miss latency
system.cpu.icache.demand_avg_mshr_miss_latency::total 38429.884275                       # average overall mshr miss latency
system.cpu.icache.overall_avg_mshr_miss_latency::.cpu.inst 38429.884275                       # average overall mshr miss latency
system.cpu.icache.overall_avg_mshr_miss_latency::total 38429.884275                       # average overall mshr miss latency
system.cpu.icache.replacements                   5636                       # number of replacements
system.cpu.icache.ReadReq_hits::.cpu.inst     14266078                       # number of ReadReq hits
system.cpu.icache.ReadReq_hits::total        14266078                       # number of ReadReq hits
system.cpu.icache.ReadReq_misses::.cpu.inst         5876                       # number of ReadReq misses
system.cpu.icache.ReadReq_misses::total          5876                       # number of ReadReq misses
system.cpu.icache.ReadReq_miss_latency::.cpu.inst    237566000                       # number of ReadReq miss cycles
system.cpu.icache.ReadReq_miss_latency::total    237566000                       # number of ReadReq miss cycles
system.cpu.icache.ReadReq_accesses::.cpu.inst     14271954                       # number of ReadReq accesses(hits+misses)
system.cpu.icache.ReadReq_accesses::total     14271954                       # number of ReadReq accesses(hits+misses)
system.cpu.icache.ReadReq_miss_rate::.cpu.inst     0.000412                       # miss rate for ReadReq accesses
system.cpu.icache.ReadReq_miss_rate::total     0.000412                       # miss rate for ReadReq accesses
system.cpu.icache.ReadReq_avg_miss_latency::.cpu.inst 40429.884275                       # average ReadReq miss latency
system.cpu.icache.ReadReq_avg_miss_latency::total 40429.884275                       # average ReadReq miss latency
system.cpu.icache.ReadReq_mshr_misses::.cpu.inst         5876                       # number of ReadReq MSHR misses
system.cpu.icache.ReadReq_mshr_misses::total         5876                       # number of ReadReq MSHR misses
system.cpu.icache.ReadReq_mshr_miss_latency::.cpu.inst    225814000                       # number of ReadReq MSHR miss cycles
system.cpu.icache.ReadReq_mshr_miss_latency::total    225814000                       # number of ReadReq MSHR miss cycles
system.cpu.icache.ReadReq_mshr_miss_rate::.cpu.inst     0.000412                       # mshr miss rate for ReadReq accesses
system.cpu.icache.ReadReq_mshr_miss_rate::total     0.000412                       # mshr miss rate for ReadReq accesses
system.cpu.icache.ReadReq_avg_mshr_miss_latency::.cpu.inst 38429.884275                       # average ReadReq mshr miss latency
system.cpu.icache.ReadReq_avg_mshr_miss_latency::total 38429.884275                       # average ReadReq mshr miss latency
system.cpu.icache.power_state.pwrStateResidencyTicks::UNDEFINED 117928224000                       # Cumulative time (in ticks) in various power states
system.cpu.icache.tags.tagsinuse           239.821989                       # Cycle average of tags in use
system.cpu.icache.tags.total_refs            14271954                       # Total number of references to valid blocks.
system.cpu.icache.tags.sampled_refs              5876                       # Sample count of references to valid blocks.
system.cpu.icache.tags.avg_refs           2428.855344                       # Average number of references to valid blocks.
system.cpu.icache.tags.warmup_cycle            123000                       # Cycle when the warmup percentage was hit.
system.cpu.icache.tags.occ_blocks::.cpu.inst   239.821989                       # Average occupied blocks per requestor
system.cpu.icache.tags.occ_percent::.cpu.inst     0.936805                       # Average percentage of cache occupancy
system.cpu.icache.tags.occ_percent::total     0.936805                       # Average percentage of cache occupancy
system.cpu.icache.tags.occ_task_id_blocks::1024          240                       # Occupied blocks per task id
system.cpu.icache.tags.age_task_id_blocks_1024::2            4                       # Occupied blocks per task id
system.cpu.icache.tags.age_task_id_blocks_1024::3            2                       # Occupied blocks per task id
system.cpu.icache.tags.age_task_id_blocks_1024::4          234                       # Occupied blocks per task id
system.cpu.icache.tags.occ_task_id_percent::1024     0.937500                       # Percentage of cache occupancy per task id
system.cpu.icache.tags.tag_accesses          14277830                       # Number of tag accesses
system.cpu.icache.tags.data_accesses         14277830                       # Number of data accesses
system.cpu.icache.tags.power_state.pwrStateResidencyTicks::UNDEFINED 117928224000                       # Cumulative time (in ticks) in various power states
system.cpu.itb.instHits                             0                       # ITB inst hits
system.cpu.itb.instMisses                           0                       # ITB inst misses
system.cpu.itb.readHits                             0                       # DTB read hits
system.cpu.itb.readMisses                           0                       # DTB read misses
system.cpu.itb.writeHits                            0                       # DTB write hits
system.cpu.itb.writeMisses                          0                       # DTB write misses
system.cpu.itb.inserts                              0                       # Number of times an entry is inserted into the TLB
system.cpu.itb.flushTlb                             0                       # Number of times complete TLB was flushed
system.cpu.itb.flushTlbMva                          0                       # Number of times TLB was flushed by MVA
system.cpu.itb.flushTlbMvaAsid                      0                       # Number of times TLB was flushed by MVA & ASID
system.cpu.itb.flushTlbAsid                         0                       # Number of times TLB was flushed by ASID
system.cpu.itb.flushedEntries                       0                       # Number of entries that have been flushed from TLB
system.cpu.itb.alignFaults                          0                       # Number of TLB faults due to alignment restrictions
system.cpu.itb.prefetchFaults                       0                       # Number of TLB faults due to prefetch
system.cpu.itb.domainFaults                         0                       # Number of TLB faults due to domain restrictions
system.cpu.itb.permsFaults                          0                       # Number of TLB faults due to permissions restrictions
system.cpu.itb.readAccesses                         0                       # DTB read accesses
system.cpu.itb.writeAccesses                        0                       # DTB write accesses
system.cpu.itb.instAccesses                         0                       # ITB inst accesses
system.cpu.itb.hits                                 0                       # Total TLB (inst and data) hits
system.cpu.itb.misses                               0                       # Total TLB (inst and data) misses
system.cpu.itb.accesses                             0                       # Total TLB (inst and data) accesses
system.cpu.itb.stage2_mmu.stage2_tlb.instHits            0                       # ITB inst hits
system.cpu.itb.stage2_mmu.stage2_tlb.instMisses            0                       # ITB inst misses
system.cpu.itb.stage2_mmu.stage2_tlb.readHits            0                       # DTB read hits
system.cpu.itb.stage2_mmu.stage2_tlb.readMisses            0                       # DTB read misses
system.cpu.itb.stage2_mmu.stage2_tlb.writeHits            0                       # DTB write hits
system.cpu.itb.stage2_mmu.stage2_tlb.writeMisses            0                       # DTB write misses
system.cpu.itb.stage2_mmu.stage2_tlb.inserts            0                       # Number of times an entry is inserted into the TLB
system.cpu.itb.stage2_mmu.stage2_tlb.flushTlb            0                       # Number of times complete TLB was flushed
system.cpu.itb.stage2_mmu.stage2_tlb.flushTlbMva            0                       # Number of times TLB was flushed by MVA
system.cpu.itb.stage2_mmu.stage2_tlb.flushTlbMvaAsid            0                       # Number of times TLB was flushed by MVA & ASID
system.cpu.itb.stage2_mmu.stage2_tlb.flushTlbAsid            0                       # Number of times TLB was flushed by ASID
system.cpu.itb.stage2_mmu.stage2_tlb.flushedEntries            0                       # Number of entries that have been flushed from TLB
system.cpu.itb.stage2_mmu.stage2_tlb.alignFaults            0                       # Number of TLB faults due to alignment restrictions
system.cpu.itb.stage2_mmu.stage2_tlb.prefetchFaults            0                       # Number of TLB faults due to prefetch
system.cpu.itb.stage2_mmu.stage2_tlb.domainFaults            0                       # Number of TLB faults due to domain restrictions
system.cpu.itb.stage2_mmu.stage2_tlb.permsFaults            0                       # Number of TLB faults due to permissions restrictions
system.cpu.itb.stage2_mmu.stage2_tlb.readAccesses            0                       # DTB read accesses
system.cpu.itb.stage2_mmu.stage2_tlb.writeAccesses            0                       # DTB write accesses
system.cpu.itb.stage2_mmu.stage2_tlb.instAccesses            0                       # ITB inst accesses
system.cpu.itb.stage2_mmu.stage2_tlb.hits            0                       # Total TLB (inst and data) hits
system.cpu.itb.stage2_mmu.stage2_tlb.misses            0                       # Total TLB (inst and data) misses
system.cpu.itb.stage2_mmu.stage2_tlb.accesses            0                       # Total TLB (inst and data) accesses
system.cpu.itb.stage2_mmu.stage2_tlb.walker.walks            0                       # Table walker walks requested
system.cpu.itb.stage2_mmu.stage2_tlb.walker.requestOrigin_Requested::Data            0                       # Table walker requests started/completed, data/inst
system.cpu.itb.stage2_mmu.stage2_tlb.walker.requestOrigin_Requested::Inst            0                       # Table walker requests started/completed, data/inst
system.cpu.itb.stage2_mmu.stage2_tlb.walker.requestOrigin_Requested::total            0                       # Table walker requests started/completed, data/inst
system.cpu.itb.stage2_mmu.stage2_tlb.walker.requestOrigin_Completed::Data            0                       # Table walker requests started/completed, data/inst
system.cpu.itb.stage2_mmu.stage2_tlb.walker.requestOrigin_Completed::Inst            0                       # Table walker requests started/completed, data/inst
system.cpu.itb.stage2_mmu.stage2_tlb.walker.requestOrigin_Completed::total            0                       # Table walker requests started/completed, data/inst
system.cpu.itb.stage2_mmu.stage2_tlb.walker.requestOrigin::total            0                       # Table walker requests started/completed, data/inst
system.cpu.itb.stage2_mmu.stage2_tlb.walker.power_state.pwrStateResidencyTicks::UNDEFINED 117928224000                       # Cumulative time (in ticks) in various power states
system.cpu.itb.walker.walks                         0                       # Table walker walks requested
system.cpu.itb.walker.requestOrigin_Requested::Data            0                       # Table walker requests started/completed, data/inst
system.cpu.itb.walker.requestOrigin_Requested::Inst            0                       # Table walker requests started/completed, data/inst
system.cpu.itb.walker.requestOrigin_Requested::total            0                       # Table walker requests started/completed, data/inst
system.cpu.itb.walker.requestOrigin_Completed::Data            0                       # Table walker requests started/completed, data/inst
system.cpu.itb.walker.requestOrigin_Completed::Inst            0                       # Table walker requests started/completed, data/inst
system.cpu.itb.walker.requestOrigin_Completed::total            0                       # Table walker requests started/completed, data/inst
system.cpu.itb.walker.requestOrigin::total            0                       # Table walker requests started/completed, data/inst
system.cpu.itb.walker.power_state.pwrStateResidencyTicks::UNDEFINED 117928224000                       # Cumulative time (in ticks) in various power states
system.cpu.power_state.pwrStateResidencyTicks::ON 117928224000                       # Cumulative time (in ticks) in various power states
system.cpu.thread_0.numInsts                100000000                       # Number of Instructions committed
system.cpu.thread_0.numOps                  101102842                       # Number of Ops committed
system.cpu.thread_0.numMemRefs                      0                       # Number of Memory References
system.cpu_clk_domain.clock                      1000                       # Clock period in ticks
system.cpu_voltage_domain.voltage                   1                       # Voltage in Volts
system.l2.demand_hits::.cpu.inst                 5141                       # number of demand (read+write) hits
system.l2.demand_hits::.cpu.data                23287                       # number of demand (read+write) hits
system.l2.demand_hits::total                    28428                       # number of demand (read+write) hits
system.l2.overall_hits::.cpu.inst                5141                       # number of overall hits
system.l2.overall_hits::.cpu.data               23287                       # number of overall hits
system.l2.overall_hits::total                   28428                       # number of overall hits
system.l2.demand_misses::.cpu.inst                735                       # number of demand (read+write) misses
system.l2.demand_misses::.cpu.data               1598                       # number of demand (read+write) misses
system.l2.demand_misses::total                   2333                       # number of demand (read+write) misses
system.l2.overall_misses::.cpu.inst               735                       # number of overall misses
system.l2.overall_misses::.cpu.data              1598                       # number of overall misses
system.l2.overall_misses::total                  2333                       # number of overall misses
system.l2.demand_miss_latency::.cpu.inst     85775000                       # number of demand (read+write) miss cycles
system.l2.demand_miss_latency::.cpu.data    174954000                       # number of demand (read+write) miss cycles
system.l2.demand_miss_latency::total        260729000                       # number of demand (read+write) miss cycles
system.l2.overall_miss_latency::.cpu.inst     85775000                       # number of overall miss cycles
system.l2.overall_miss_latency::.cpu.data    174954000                       # number of overall miss cycles
system.l2.overall_miss_latency::total       260729000                       # number of overall miss cycles
system.l2.demand_accesses::.cpu.inst             5876                       # number of demand (read+write) accesses
system.l2.demand_accesses::.cpu.data            24885                       # number of demand (read+write) accesses
system.l2.demand_accesses::total                30761                       # number of demand (read+write) accesses
system.l2.overall_accesses::.cpu.inst            5876                       # number of overall (read+write) accesses
system.l2.overall_accesses::.cpu.data           24885                       # number of overall (read+write) accesses
system.l2.overall_accesses::total               30761                       # number of overall (read+write) accesses
system.l2.demand_miss_rate::.cpu.inst        0.125085                       # miss rate for demand accesses
system.l2.demand_miss_rate::.cpu.data        0.064215                       # miss rate for demand accesses
system.l2.demand_miss_rate::total            0.075843                       # miss rate for demand accesses
system.l2.overall_miss_rate::.cpu.inst       0.125085                       # miss rate for overall accesses
system.l2.overall_miss_rate::.cpu.data       0.064215                       # miss rate for overall accesses
system.l2.overall_miss_rate::total           0.075843                       # miss rate for overall accesses
system.l2.demand_avg_miss_latency::.cpu.inst 116700.680272                       # average overall miss latency
system.l2.demand_avg_miss_latency::.cpu.data 109483.103880                       # average overall miss latency
system.l2.demand_avg_miss_latency::total 111756.965281                       # average overall miss latency
system.l2.overall_avg_miss_latency::.cpu.inst 116700.680272                       # average overall miss latency
system.l2.overall_avg_miss_latency::.cpu.data 109483.103880                       # average overall miss latency
system.l2.overall_avg_miss_latency::total 111756.965281                       # average overall miss latency
system.l2.blocked_cycles::no_mshrs                  0                       # number of cycles access was blocked
system.l2.blocked_cycles::no_targets                0                       # number of cycles access was blocked
system.l2.blocked::no_mshrs                         0                       # number of cycles access was blocked
system.l2.blocked::no_targets                       0                       # number of cycles access was blocked
system.l2.avg_blocked_cycles::no_mshrs            nan                       # average number of cycles each access was blocked
system.l2.avg_blocked_cycles::no_targets          nan                       # average number of cycles each access was blocked
system.l2.writebacks::.writebacks                 303                       # number of writebacks
system.l2.writebacks::total                       303                       # number of writebacks
system.l2.demand_mshr_hits::.cpu.inst              40                       # number of demand (read+write) MSHR hits
system.l2.demand_mshr_hits::.cpu.data               7                       # number of demand (read+write) MSHR hits
system.l2.demand_mshr_hits::total                  47                       # number of demand (read+write) MSHR hits
system.l2.overall_mshr_hits::.cpu.inst             40                       # number of overall MSHR hits
system.l2.overall_mshr_hits::.cpu.data              7                       # number of overall MSHR hits
system.l2.overall_mshr_hits::total                 47                       # number of overall MSHR hits
system.l2.demand_mshr_misses::.cpu.inst           695                       # number of demand (read+write) MSHR misses
system.l2.demand_mshr_misses::.cpu.data          1591                       # number of demand (read+write) MSHR misses
system.l2.demand_mshr_misses::total              2286                       # number of demand (read+write) MSHR misses
system.l2.overall_mshr_misses::.cpu.inst          695                       # number of overall MSHR misses
system.l2.overall_mshr_misses::.cpu.data         1591                       # number of overall MSHR misses
system.l2.overall_mshr_misses::total             2286                       # number of overall MSHR misses
system.l2.demand_mshr_miss_latency::.cpu.inst     67140000                       # number of demand (read+write) MSHR miss cycles
system.l2.demand_mshr_miss_latency::.cpu.data    142165000                       # number of demand (read+write) MSHR miss cycles
system.l2.demand_mshr_miss_latency::total    209305000                       # number of demand (read+write) MSHR miss cycles
system.l2.overall_mshr_miss_latency::.cpu.inst     67140000                       # number of overall MSHR miss cycles
system.l2.overall_mshr_miss_latency::.cpu.data    142165000                       # number of overall MSHR miss cycles
system.l2.overall_mshr_miss_latency::total    209305000                       # number of overall MSHR miss cycles
system.l2.demand_mshr_miss_rate::.cpu.inst     0.118278                       # mshr miss rate for demand accesses
system.l2.demand_mshr_miss_rate::.cpu.data     0.063934                       # mshr miss rate for demand accesses
system.l2.demand_mshr_miss_rate::total       0.074315                       # mshr miss rate for demand accesses
system.l2.overall_mshr_miss_rate::.cpu.inst     0.118278                       # mshr miss rate for overall accesses
system.l2.overall_mshr_miss_rate::.cpu.data     0.063934                       # mshr miss rate for overall accesses
system.l2.overall_mshr_miss_rate::total      0.074315                       # mshr miss rate for overall accesses
system.l2.demand_avg_mshr_miss_latency::.cpu.inst 96604.316547                       # average overall mshr miss latency
system.l2.demand_avg_mshr_miss_latency::.cpu.data 89355.751100                       # average overall mshr miss latency
system.l2.demand_avg_mshr_miss_latency::total 91559.492563                       # average overall mshr miss latency
system.l2.overall_avg_mshr_miss_latency::.cpu.inst 96604.316547                       # average overall mshr miss latency
system.l2.overall_avg_mshr_miss_latency::.cpu.data 89355.751100                       # average overall mshr miss latency
system.l2.overall_avg_mshr_miss_latency::total 91559.492563                       # average overall mshr miss latency
system.l2.replacements                           1143                       # number of replacements
system.l2.WritebackDirty_hits::.writebacks        23108                       # number of WritebackDirty hits
system.l2.WritebackDirty_hits::total            23108                       # number of WritebackDirty hits
system.l2.WritebackDirty_accesses::.writebacks        23108                       # number of WritebackDirty accesses(hits+misses)
system.l2.WritebackDirty_accesses::total        23108                       # number of WritebackDirty accesses(hits+misses)
system.l2.WritebackClean_hits::.writebacks         5008                       # number of WritebackClean hits
system.l2.WritebackClean_hits::total             5008                       # number of WritebackClean hits
system.l2.WritebackClean_accesses::.writebacks         5008                       # number of WritebackClean accesses(hits+misses)
system.l2.WritebackClean_accesses::total         5008                       # number of WritebackClean accesses(hits+misses)
system.l2.CleanEvict_mshr_misses::.writebacks           94                       # number of CleanEvict MSHR misses
system.l2.CleanEvict_mshr_misses::total            94                       # number of CleanEvict MSHR misses
system.l2.CleanEvict_mshr_miss_rate::.writebacks          inf                       # mshr miss rate for CleanEvict accesses
system.l2.CleanEvict_mshr_miss_rate::total          inf                       # mshr miss rate for CleanEvict accesses
system.l2.ReadExReq_hits::.cpu.data             16608                       # number of ReadExReq hits
system.l2.ReadExReq_hits::total                 16608                       # number of ReadExReq hits
system.l2.ReadExReq_misses::.cpu.data            1216                       # number of ReadExReq misses
system.l2.ReadExReq_misses::total                1216                       # number of ReadExReq misses
system.l2.ReadExReq_miss_latency::.cpu.data    129728000                       # number of ReadExReq miss cycles
system.l2.ReadExReq_miss_latency::total     129728000                       # number of ReadExReq miss cycles
system.l2.ReadExReq_accesses::.cpu.data         17824                       # number of ReadExReq accesses(hits+misses)
system.l2.ReadExReq_accesses::total             17824                       # number of ReadExReq accesses(hits+misses)
system.l2.ReadExReq_miss_rate::.cpu.data     0.068223                       # miss rate for ReadExReq accesses
system.l2.ReadExReq_miss_rate::total         0.068223                       # miss rate for ReadExReq accesses
system.l2.ReadExReq_avg_miss_latency::.cpu.data 106684.210526                       # average ReadExReq miss latency
system.l2.ReadExReq_avg_miss_latency::total 106684.210526                       # average ReadExReq miss latency
system.l2.ReadExReq_mshr_misses::.cpu.data         1216                       # number of ReadExReq MSHR misses
system.l2.ReadExReq_mshr_misses::total           1216                       # number of ReadExReq MSHR misses
system.l2.ReadExReq_mshr_miss_latency::.cpu.data    105408000                       # number of ReadExReq MSHR miss cycles
system.l2.ReadExReq_mshr_miss_latency::total    105408000                       # number of ReadExReq MSHR miss cycles
system.l2.ReadExReq_mshr_miss_rate::.cpu.data     0.068223                       # mshr miss rate for ReadExReq accesses
system.l2.ReadExReq_mshr_miss_rate::total     0.068223                       # mshr miss rate for ReadExReq accesses
system.l2.ReadExReq_avg_mshr_miss_latency::.cpu.data 86684.210526                       # average ReadExReq mshr miss latency
system.l2.ReadExReq_avg_mshr_miss_latency::total 86684.210526                       # average ReadExReq mshr miss latency
system.l2.ReadCleanReq_hits::.cpu.inst           5141                       # number of ReadCleanReq hits
system.l2.ReadCleanReq_hits::total               5141                       # number of ReadCleanReq hits
system.l2.ReadCleanReq_misses::.cpu.inst          735                       # number of ReadCleanReq misses
system.l2.ReadCleanReq_misses::total              735                       # number of ReadCleanReq misses
system.l2.ReadCleanReq_miss_latency::.cpu.inst     85775000                       # number of ReadCleanReq miss cycles
system.l2.ReadCleanReq_miss_latency::total     85775000                       # number of ReadCleanReq miss cycles
system.l2.ReadCleanReq_accesses::.cpu.inst         5876                       # number of ReadCleanReq accesses(hits+misses)
system.l2.ReadCleanReq_accesses::total           5876                       # number of ReadCleanReq accesses(hits+misses)
system.l2.ReadCleanReq_miss_rate::.cpu.inst     0.125085                       # miss rate for ReadCleanReq accesses
system.l2.ReadCleanReq_miss_rate::total      0.125085                       # miss rate for ReadCleanReq accesses
system.l2.ReadCleanReq_avg_miss_latency::.cpu.inst 116700.680272                       # average ReadCleanReq miss latency
system.l2.ReadCleanReq_avg_miss_latency::total 116700.680272                       # average ReadCleanReq miss latency
system.l2.ReadCleanReq_mshr_hits::.cpu.inst           40                       # number of ReadCleanReq MSHR hits
system.l2.ReadCleanReq_mshr_hits::total            40                       # number of ReadCleanReq MSHR hits
system.l2.ReadCleanReq_mshr_misses::.cpu.inst          695                       # number of ReadCleanReq MSHR misses
system.l2.ReadCleanReq_mshr_misses::total          695                       # number of ReadCleanReq MSHR misses
system.l2.ReadCleanReq_mshr_miss_latency::.cpu.inst     67140000                       # number of ReadCleanReq MSHR miss cycles
system.l2.ReadCleanReq_mshr_miss_latency::total     67140000                       # number of ReadCleanReq MSHR miss cycles
system.l2.ReadCleanReq_mshr_miss_rate::.cpu.inst     0.118278                       # mshr miss rate for ReadCleanReq accesses
system.l2.ReadCleanReq_mshr_miss_rate::total     0.118278                       # mshr miss rate for ReadCleanReq accesses
system.l2.ReadCleanReq_avg_mshr_miss_latency::.cpu.inst 96604.316547                       # average ReadCleanReq mshr miss latency
system.l2.ReadCleanReq_avg_mshr_miss_latency::total 96604.316547                       # average ReadCleanReq mshr miss latency
system.l2.ReadSharedReq_hits::.cpu.data          6679                       # number of ReadSharedReq hits
system.l2.ReadSharedReq_hits::total              6679                       # number of ReadSharedReq hits
system.l2.ReadSharedReq_misses::.cpu.data          382                       # number of ReadSharedReq misses
system.l2.ReadSharedReq_misses::total             382                       # number of ReadSharedReq misses
system.l2.ReadSharedReq_miss_latency::.cpu.data     45226000                       # number of ReadSharedReq miss cycles
system.l2.ReadSharedReq_miss_latency::total     45226000                       # number of ReadSharedReq miss cycles
system.l2.ReadSharedReq_accesses::.cpu.data         7061                       # number of ReadSharedReq accesses(hits+misses)
system.l2.ReadSharedReq_accesses::total          7061                       # number of ReadSharedReq accesses(hits+misses)
system.l2.ReadSharedReq_miss_rate::.cpu.data     0.054100                       # miss rate for ReadSharedReq accesses
system.l2.ReadSharedReq_miss_rate::total     0.054100                       # miss rate for ReadSharedReq accesses
system.l2.ReadSharedReq_avg_miss_latency::.cpu.data 118392.670157                       # average ReadSharedReq miss latency
system.l2.ReadSharedReq_avg_miss_latency::total 118392.670157                       # average ReadSharedReq miss latency
system.l2.ReadSharedReq_mshr_hits::.cpu.data            7                       # number of ReadSharedReq MSHR hits
system.l2.ReadSharedReq_mshr_hits::total            7                       # number of ReadSharedReq MSHR hits
system.l2.ReadSharedReq_mshr_misses::.cpu.data          375                       # number of ReadSharedReq MSHR misses
system.l2.ReadSharedReq_mshr_misses::total          375                       # number of ReadSharedReq MSHR misses
system.l2.ReadSharedReq_mshr_miss_latency::.cpu.data     36757000                       # number of ReadSharedReq MSHR miss cycles
system.l2.ReadSharedReq_mshr_miss_latency::total     36757000                       # number of ReadSharedReq MSHR miss cycles
system.l2.ReadSharedReq_mshr_miss_rate::.cpu.data     0.053109                       # mshr miss rate for ReadSharedReq accesses
system.l2.ReadSharedReq_mshr_miss_rate::total     0.053109                       # mshr miss rate for ReadSharedReq accesses
system.l2.ReadSharedReq_avg_mshr_miss_latency::.cpu.data 98018.666667                       # average ReadSharedReq mshr miss latency
system.l2.ReadSharedReq_avg_mshr_miss_latency::total 98018.666667                       # average ReadSharedReq mshr miss latency
system.l2.power_state.pwrStateResidencyTicks::UNDEFINED 117928224000                       # Cumulative time (in ticks) in various power states
system.l2.tags.tagsinuse                  1246.058219                       # Cycle average of tags in use
system.l2.tags.total_refs                       59396                       # Total number of references to valid blocks.
system.l2.tags.sampled_refs                      2428                       # Sample count of references to valid blocks.
system.l2.tags.avg_refs                     24.462932                       # Average number of references to valid blocks.
system.l2.tags.warmup_cycle                    102000                       # Cycle when the warmup percentage was hit.
system.l2.tags.occ_blocks::.writebacks      29.429008                       # Average occupied blocks per requestor
system.l2.tags.occ_blocks::.cpu.inst       218.186175                       # Average occupied blocks per requestor
system.l2.tags.occ_blocks::.cpu.data       998.443036                       # Average occupied blocks per requestor
system.l2.tags.occ_percent::.writebacks      0.014370                       # Average percentage of cache occupancy
system.l2.tags.occ_percent::.cpu.inst        0.106536                       # Average percentage of cache occupancy
system.l2.tags.occ_percent::.cpu.data        0.487521                       # Average percentage of cache occupancy
system.l2.tags.occ_percent::total            0.608427                       # Average percentage of cache occupancy
system.l2.tags.occ_task_id_blocks::1024          1285                       # Occupied blocks per task id
system.l2.tags.age_task_id_blocks_1024::2            4                       # Occupied blocks per task id
system.l2.tags.age_task_id_blocks_1024::3            5                       # Occupied blocks per task id
system.l2.tags.age_task_id_blocks_1024::4         1276                       # Occupied blocks per task id
system.l2.tags.occ_task_id_percent::1024     0.627441                       # Percentage of cache occupancy per task id
system.l2.tags.tag_accesses                     61965                       # Number of tag accesses
system.l2.tags.data_accesses                    61965                       # Number of data accesses
system.l2.tags.power_state.pwrStateResidencyTicks::UNDEFINED 117928224000                       # Cumulative time (in ticks) in various power states
system.mem_ctrls.avgPriority_.writebacks::samples       401.00                       # Average QoS priority value for accepted requests
system.mem_ctrls.avgPriority_.cpu.inst::samples      2780.00                       # Average QoS priority value for accepted requests
system.mem_ctrls.avgPriority_.cpu.data::samples      5352.00                       # Average QoS priority value for accepted requests
system.mem_ctrls.priorityMinLatency      0.000000018750                       # per QoS priority minimum request to response latency (s)
system.mem_ctrls.priorityMaxLatency      0.078010466500                       # per QoS priority maximum request to response latency (s)
system.mem_ctrls.numReadWriteTurnArounds           19                       # Number of turnarounds from READ to WRITE
system.mem_ctrls.numWriteReadTurnArounds           19                       # Number of turnarounds from WRITE to READ
system.mem_ctrls.numStayReadState               40729                       # Number of times bus staying in READ state
system.mem_ctrls.numStayWriteState                356                       # Number of times bus staying in WRITE state
system.mem_ctrls.readReqs                        2286                       # Number of read requests accepted
system.mem_ctrls.writeReqs                        303                       # Number of write requests accepted
system.mem_ctrls.readBursts                      9144                       # Number of controller read bursts, including those serviced by the write queue
system.mem_ctrls.writeBursts                     1212                       # Number of controller write bursts, including those merged in the write queue
system.mem_ctrls.servicedByWrQ                   1012                       # Number of controller read bursts serviced by the write queue
system.mem_ctrls.mergedWrBursts                   811                       # Number of controller write bursts merged with an existing one
system.mem_ctrls.neitherReadNorWriteReqs            0                       # Number of requests that are neither read nor write
system.mem_ctrls.avgRdQLen                       3.80                       # Average read queue length when enqueuing
system.mem_ctrls.avgWrQLen                      28.22                       # Average write queue length when enqueuing
system.mem_ctrls.numRdRetry                         0                       # Number of times read queue was full causing retry
system.mem_ctrls.numWrRetry                         0                       # Number of times write queue was full causing retry
system.mem_ctrls.readPktSize::0                     0                       # Read request sizes (log2)
system.mem_ctrls.readPktSize::1                     0                       # Read request sizes (log2)
system.mem_ctrls.readPktSize::2                     0                       # Read request sizes (log2)
system.mem_ctrls.readPktSize::3                     0                       # Read request sizes (log2)
system.mem_ctrls.readPktSize::4                     0                       # Read request sizes (log2)
system.mem_ctrls.readPktSize::5                     0                       # Read request sizes (log2)
system.mem_ctrls.readPktSize::6                  9144                       # Read request sizes (log2)
system.mem_ctrls.readPktSize::7                     0                       # Read request sizes (log2)
system.mem_ctrls.readPktSize::8                     0                       # Read request sizes (log2)
system.mem_ctrls.writePktSize::0                    0                       # Write request sizes (log2)
system.mem_ctrls.writePktSize::1                    0                       # Write request sizes (log2)
system.mem_ctrls.writePktSize::2                    0                       # Write request sizes (log2)
system.mem_ctrls.writePktSize::3                    0                       # Write request sizes (log2)
system.mem_ctrls.writePktSize::4                    0                       # Write request sizes (log2)
system.mem_ctrls.writePktSize::5                    0                       # Write request sizes (log2)
system.mem_ctrls.writePktSize::6                 1212                       # Write request sizes (log2)
system.mem_ctrls.writePktSize::7                    0                       # Write request sizes (log2)
system.mem_ctrls.writePktSize::8                    0                       # Write request sizes (log2)
system.mem_ctrls.rdQLenPdf::0                    1962                       # What read queue length does an incoming req see
[...]
system.mem_ctrls.dram.bw_write::.writebacks       657756                       # Write bandwidth from this memory (bytes/s)
system.mem_ctrls.dram.bw_write::total          657756                       # Write bandwidth from this memory (bytes/s)
system.mem_ctrls.dram.bw_total::.writebacks       657756                       # Total bandwidth to/from this memory (bytes/s)
system.mem_ctrls.dram.bw_total::.cpu.inst      1508714                       # Total bandwidth to/from this memory (bytes/s)
system.mem_ctrls.dram.bw_total::.cpu.data      3453762                       # Total bandwidth to/from this memory (bytes/s)
system.mem_ctrls.dram.bw_total::total         5620232                       # Total bandwidth to/from this memory (bytes/s)
system.mem_ctrls.dram.readBursts                 8132                       # Number of DRAM read bursts
system.mem_ctrls.dram.writeBursts                 375                       # Number of DRAM write bursts
system.mem_ctrls.dram.perBankRdBursts::0          336                       # Per bank write bursts
system.mem_ctrls.dram.perBankRdBursts::1          364                       # Per bank write bursts
system.mem_ctrls.dram.perBankRdBursts::2          308                       # Per bank write bursts
system.mem_ctrls.dram.perBankRdBursts::3          480                       # Per bank write bursts
system.mem_ctrls.dram.perBankRdBursts::4          484                       # Per bank write bursts
system.mem_ctrls.dram.perBankRdBursts::5          404                       # Per bank write bursts
system.mem_ctrls.dram.perBankRdBursts::6          420                       # Per bank write bursts
system.mem_ctrls.dram.perBankRdBursts::7          472                       # Per bank write bursts
system.mem_ctrls.dram.perBankRdBursts::8         1517                       # Per bank write bursts
system.mem_ctrls.dram.perBankRdBursts::9          812                       # Per bank write bursts
system.mem_ctrls.dram.perBankRdBursts::10          571                       # Per bank write bursts
system.mem_ctrls.dram.perBankRdBursts::11          348                       # Per bank write bursts
system.mem_ctrls.dram.perBankRdBursts::12          328                       # Per bank write bursts
system.mem_ctrls.dram.perBankRdBursts::13          404                       # Per bank write bursts
system.mem_ctrls.dram.perBankRdBursts::14          520                       # Per bank write bursts
system.mem_ctrls.dram.perBankRdBursts::15          364                       # Per bank write bursts
system.mem_ctrls.dram.perBankWrBursts::0            4                       # Per bank write bursts
system.mem_ctrls.dram.perBankWrBursts::1           12                       # Per bank write bursts
system.mem_ctrls.dram.perBankWrBursts::2            0                       # Per bank write bursts
system.mem_ctrls.dram.perBankWrBursts::3            0                       # Per bank write bursts
system.mem_ctrls.dram.perBankWrBursts::4            0                       # Per bank write bursts
system.mem_ctrls.dram.perBankWrBursts::5            0                       # Per bank write bursts
system.mem_ctrls.dram.perBankWrBursts::6            0                       # Per bank write bursts
system.mem_ctrls.dram.perBankWrBursts::7            0                       # Per bank write bursts
system.mem_ctrls.dram.perBankWrBursts::8          173                       # Per bank write bursts
system.mem_ctrls.dram.perBankWrBursts::9          101                       # Per bank write bursts
system.mem_ctrls.dram.perBankWrBursts::10           57                       # Per bank write bursts
system.mem_ctrls.dram.perBankWrBursts::11            0                       # Per bank write bursts
system.mem_ctrls.dram.perBankWrBursts::12            0                       # Per bank write bursts
system.mem_ctrls.dram.perBankWrBursts::13            0                       # Per bank write bursts
system.mem_ctrls.dram.perBankWrBursts::14           28                       # Per bank write bursts
system.mem_ctrls.dram.perBankWrBursts::15            0                       # Per bank write bursts
system.mem_ctrls.dram.totQLat               162240000                       # Total ticks spent queuing
system.mem_ctrls.dram.totBusLat              40660000                       # Total ticks spent in databus transfers
system.mem_ctrls.dram.totMemAccLat          314715000                       # Total ticks spent from burst creation until serviced by the DRAM
system.mem_ctrls.dram.avgQLat                19950.81                       # Average queueing delay per DRAM burst
system.mem_ctrls.dram.avgBusLat               5000.00                       # Average bus latency per DRAM burst
system.mem_ctrls.dram.avgMemAccLat           38700.81                       # Average memory access latency per DRAM burst
system.mem_ctrls.dram.readRowHits                7074                       # Number of row buffer hits during reads
system.mem_ctrls.dram.writeRowHits                331                       # Number of row buffer hits during writes
system.mem_ctrls.dram.readRowHitRate            86.99                       # Row buffer hit rate for reads
system.mem_ctrls.dram.writeRowHitRate           88.27                       # Row buffer hit rate for writes
system.mem_ctrls.dram.bytesPerActivate::samples         1102                       # Bytes accessed per row activation
system.mem_ctrls.dram.bytesPerActivate::mean   494.054446                       # Bytes accessed per row activation
system.mem_ctrls.dram.bytesPerActivate::gmean   409.347277                       # Bytes accessed per row activation
system.mem_ctrls.dram.bytesPerActivate::stdev   308.090726                       # Bytes accessed per row activation
system.mem_ctrls.dram.bytesPerActivate::0-127           13      1.18%      1.18% # Bytes accessed per row activation
system.mem_ctrls.dram.bytesPerActivate::128-255            7      0.64%      1.81% # Bytes accessed per row activation
system.mem_ctrls.dram.bytesPerActivate::256-383          590     53.54%     55.35% # Bytes accessed per row activation
system.mem_ctrls.dram.bytesPerActivate::384-511            1      0.09%     55.44% # Bytes accessed per row activation
system.mem_ctrls.dram.bytesPerActivate::512-639          157     14.25%     69.69% # Bytes accessed per row activation
system.mem_ctrls.dram.bytesPerActivate::640-767            1      0.09%     69.78% # Bytes accessed per row activation
system.mem_ctrls.dram.bytesPerActivate::768-895          123     11.16%     80.94% # Bytes accessed per row activation
system.mem_ctrls.dram.bytesPerActivate::896-1023            4      0.36%     81.31% # Bytes accessed per row activation
system.mem_ctrls.dram.bytesPerActivate::1024-1151          206     18.69%    100.00% # Bytes accessed per row activation
system.mem_ctrls.dram.bytesPerActivate::total         1102                       # Bytes accessed per row activation
system.mem_ctrls.dram.bytesRead                520448                       # Total number of bytes read from DRAM
system.mem_ctrls.dram.bytesWritten              24000                       # Total number of bytes written to DRAM
system.mem_ctrls.dram.avgRdBW                4.413261                       # Average DRAM read bandwidth in MiBytes/s
system.mem_ctrls.dram.avgWrBW                0.203514                       # Average DRAM write bandwidth in MiBytes/s
system.mem_ctrls.dram.peakBW                 12800.00                       # Theoretical peak bandwidth in MiByte/s
system.mem_ctrls.dram.busUtil                    0.04                       # Data bus utilization in percentage
system.mem_ctrls.dram.busUtilRead                0.03                       # Data bus utilization in percentage for reads
system.mem_ctrls.dram.busUtilWrite               0.00                       # Data bus utilization in percentage for writes
system.mem_ctrls.dram.pageHitRate               87.05                       # Row buffer hit rate, read and write combined
system.mem_ctrls.dram.power_state.pwrStateResidencyTicks::UNDEFINED 117928224000                       # Cumulative time (in ticks) in various power states
system.mem_ctrls.dram.rank0.actEnergy         3227280                       # Energy for activate commands per rank (pJ)
system.mem_ctrls.dram.rank0.preEnergy         1715340                       # Energy for precharge commands per rank (pJ)
system.mem_ctrls.dram.rank0.readEnergy       23333520                       # Energy for read commands per rank (pJ)
system.mem_ctrls.dram.rank0.writeEnergy         83520                       # Energy for write commands per rank (pJ)
system.mem_ctrls.dram.rank0.refreshEnergy 9308722800.000002                       # Energy for refresh commands per rank (pJ)
system.mem_ctrls.dram.rank0.actBackEnergy   2169402330                       # Energy for active background per rank (pJ)
system.mem_ctrls.dram.rank0.preBackEnergy  43457573280                       # Energy for precharge background per rank (pJ)
system.mem_ctrls.dram.rank0.actPowerDownEnergy            0                       # Energy for active power-down per rank (pJ)
system.mem_ctrls.dram.rank0.prePowerDownEnergy            0                       # Energy for precharge power-down per rank (pJ)
system.mem_ctrls.dram.rank0.selfRefreshEnergy            0                       # Energy for self refresh per rank (pJ)
system.mem_ctrls.dram.rank0.totalEnergy   54964058070                       # Total energy per rank (pJ)
system.mem_ctrls.dram.rank0.averagePower   466.080606                       # Core power per rank (mW)
system.mem_ctrls.dram.rank0.totalIdleTime            0                       # Total Idle time Per DRAM Rank
system.mem_ctrls.dram.rank0.pwrStateTime::IDLE 112958796750                       # Time in different power states
system.mem_ctrls.dram.rank0.pwrStateTime::REF   3937700000                       # Time in different power states
system.mem_ctrls.dram.rank0.pwrStateTime::SREF            0                       # Time in different power states
system.mem_ctrls.dram.rank0.pwrStateTime::PRE_PDN            0                       # Time in different power states
system.mem_ctrls.dram.rank0.pwrStateTime::ACT   1031727250                       # Time in different power states
system.mem_ctrls.dram.rank0.pwrStateTime::ACT_PDN            0                       # Time in different power states
system.mem_ctrls.dram.rank1.actEnergy         4641000                       # Energy for activate commands per rank (pJ)
system.mem_ctrls.dram.rank1.preEnergy         2466750                       # Energy for precharge commands per rank (pJ)
system.mem_ctrls.dram.rank1.readEnergy       34728960                       # Energy for read commands per rank (pJ)
system.mem_ctrls.dram.rank1.writeEnergy       1873980                       # Energy for write commands per rank (pJ)
system.mem_ctrls.dram.rank1.refreshEnergy 9308722800.000002                       # Energy for refresh commands per rank (pJ)
system.mem_ctrls.dram.rank1.actBackEnergy   2361633120                       # Energy for active background per rank (pJ)
system.mem_ctrls.dram.rank1.preBackEnergy  43295694720                       # Energy for precharge background per rank (pJ)
system.mem_ctrls.dram.rank1.actPowerDownEnergy            0                       # Energy for active power-down per rank (pJ)
system.mem_ctrls.dram.rank1.prePowerDownEnergy            0                       # Energy for precharge power-down per rank (pJ)
system.mem_ctrls.dram.rank1.selfRefreshEnergy            0                       # Energy for self refresh per rank (pJ)
system.mem_ctrls.dram.rank1.totalEnergy   55009761330                       # Total energy per rank (pJ)
system.mem_ctrls.dram.rank1.averagePower   466.468157                       # Core power per rank (mW)
system.mem_ctrls.dram.rank1.totalIdleTime            0                       # Total Idle time Per DRAM Rank
system.mem_ctrls.dram.rank1.pwrStateTime::IDLE 112535593750                       # Time in different power states
system.mem_ctrls.dram.rank1.pwrStateTime::REF   3937700000                       # Time in different power states
system.mem_ctrls.dram.rank1.pwrStateTime::SREF            0                       # Time in different power states
system.mem_ctrls.dram.rank1.pwrStateTime::PRE_PDN            0                       # Time in different power states
system.mem_ctrls.dram.rank1.pwrStateTime::ACT   1454930250                       # Time in different power states
system.mem_ctrls.dram.rank1.pwrStateTime::ACT_PDN            0                       # Time in different power states
system.mem_ctrls.power_state.pwrStateResidencyTicks::UNDEFINED 117928224000                       # Cumulative time (in ticks) in various power states
system.membus.trans_dist::ReadResp               1070                       # Transaction distribution
system.membus.trans_dist::WritebackDirty          303                       # Transaction distribution
system.membus.trans_dist::CleanEvict              478                       # Transaction distribution
system.membus.trans_dist::ReadExReq              1216                       # Transaction distribution
system.membus.trans_dist::ReadExResp             1216                       # Transaction distribution
system.membus.trans_dist::ReadSharedReq          1070                       # Transaction distribution
system.membus.pkt_count_system.l2.mem_side_port::system.mem_ctrls.port         5353                       # Packet count per connected requestor and responder (bytes)
system.membus.pkt_count::total                   5353                       # Packet count per connected requestor and responder (bytes)
system.membus.pkt_size_system.l2.mem_side_port::system.mem_ctrls.port       662784                       # Cumulative packet size per connected requestor and responder (bytes)
system.membus.pkt_size::total                  662784                       # Cumulative packet size per connected requestor and responder (bytes)
system.membus.snoops                                0                       # Total snoops (count)
system.membus.snoopTraffic                          0                       # Total snoop traffic (bytes)
system.membus.snoop_fanout::samples              2286                       # Request fanout histogram
system.membus.snoop_fanout::mean                    0                       # Request fanout histogram
system.membus.snoop_fanout::stdev                   0                       # Request fanout histogram
system.membus.snoop_fanout::underflows              0      0.00%      0.00% # Request fanout histogram
system.membus.snoop_fanout::0                    2286    100.00%    100.00% # Request fanout histogram
system.membus.snoop_fanout::1                       0      0.00%    100.00% # Request fanout histogram
system.membus.snoop_fanout::overflows               0      0.00%    100.00% # Request fanout histogram
system.membus.snoop_fanout::min_value               0                       # Request fanout histogram
system.membus.snoop_fanout::max_value               0                       # Request fanout histogram
system.membus.snoop_fanout::total                2286                       # Request fanout histogram
system.membus.power_state.pwrStateResidencyTicks::UNDEFINED 117928224000                       # Cumulative time (in ticks) in various power states
system.membus.reqLayer0.occupancy             7915000                       # Layer occupancy (ticks)
system.membus.reqLayer0.utilization               0.0                       # Layer utilization (%)
system.membus.respLayer1.occupancy           39655750                       # Layer occupancy (ticks)
system.membus.respLayer1.utilization              0.0                       # Layer utilization (%)
system.tol2bus.trans_dist::ReadResp             12937                       # Transaction distribution
system.tol2bus.trans_dist::WritebackDirty        23411                       # Transaction distribution
system.tol2bus.trans_dist::WritebackClean         5636                       # Transaction distribution
system.tol2bus.trans_dist::CleanEvict            2489                       # Transaction distribution
system.tol2bus.trans_dist::ReadExReq            17824                       # Transaction distribution
system.tol2bus.trans_dist::ReadExResp           17824                       # Transaction distribution
system.tol2bus.trans_dist::ReadCleanReq          5876                       # Transaction distribution
system.tol2bus.trans_dist::ReadSharedReq         7061                       # Transaction distribution
system.tol2bus.pkt_count_system.cpu.icache.mem_side_port::system.l2.cpu_side_port        17388                       # Packet count per connected requestor and responder (bytes)
system.tol2bus.pkt_count_system.cpu.dcache.mem_side_port::system.l2.cpu_side_port        74527                       # Packet count per connected requestor and responder (bytes)
system.tol2bus.pkt_count::total                 91915                       # Packet count per connected requestor and responder (bytes)
system.tol2bus.pkt_size_system.cpu.icache.mem_side_port::system.l2.cpu_side_port      2947072                       # Cumulative packet size per connected requestor and responder (bytes)
system.tol2bus.pkt_size_system.cpu.dcache.mem_side_port::system.l2.cpu_side_port     12286208                       # Cumulative packet size per connected requestor and responder (bytes)
system.tol2bus.pkt_size::total               15233280                       # Cumulative packet size per connected requestor and responder (bytes)
system.tol2bus.snoops                            1143                       # Total snoops (count)
system.tol2bus.snoopTraffic                     77568                       # Total snoop traffic (bytes)
system.tol2bus.snoop_fanout::samples            31904                       # Request fanout histogram
system.tol2bus.snoop_fanout::mean            0.066199                       # Request fanout histogram
system.tol2bus.snoop_fanout::stdev           0.253254                       # Request fanout histogram
system.tol2bus.snoop_fanout::underflows             0      0.00%      0.00% # Request fanout histogram
system.tol2bus.snoop_fanout::0                  29829     93.50%     93.50% # Request fanout histogram
system.tol2bus.snoop_fanout::1                   2038      6.39%     99.88% # Request fanout histogram
system.tol2bus.snoop_fanout::2                     37      0.12%    100.00% # Request fanout histogram
system.tol2bus.snoop_fanout::overflows              0      0.00%    100.00% # Request fanout histogram
system.tol2bus.snoop_fanout::min_value              0                       # Request fanout histogram
system.tol2bus.snoop_fanout::max_value              2                       # Request fanout histogram
system.tol2bus.snoop_fanout::total              31904                       # Request fanout histogram
system.tol2bus.power_state.pwrStateResidencyTicks::UNDEFINED 117928224000                       # Cumulative time (in ticks) in various power states
system.tol2bus.reqLayer0.occupancy          291106000                       # Layer occupancy (ticks)
system.tol2bus.reqLayer0.utilization              0.2                       # Layer utilization (%)
system.tol2bus.respLayer0.occupancy          52923960                       # Layer occupancy (ticks)
system.tol2bus.respLayer0.utilization             0.0                       # Layer utilization (%)
system.tol2bus.respLayer1.occupancy         223979985                       # Layer occupancy (ticks)
system.tol2bus.respLayer1.utilization             0.2                       # Layer utilization (%)
system.voltage_domain.voltage                       1                       # Voltage in Volts

---------- End Simulation Statistics   ----------
