
---------- Begin Simulation Statistics ----------
final_tick                               265063507000                       # Number of ticks from beginning of simulation (restored from checkpoints and never reset)
host_inst_rate                                 400858                       # Simulator instruction rate (inst/s)
host_mem_usage                                 662156                       # Number of bytes of host memory used
host_op_rate                                   400874                       # Simulator op (including micro ops) rate (op/s)
host_seconds                                   249.46                       # Real time elapsed on the host
host_tick_rate                             1062529161                       # Simulator tick rate (ticks/s)
sim_freq                                 1000000000000                       # Frequency of simulated ticks
sim_insts                                   100000000                       # Number of instructions simulated
sim_ops                                     100003793                       # Number of ops (including micro ops) simulated
sim_seconds                                  0.265064                       # Number of seconds simulated
sim_ticks                                265063507000                       # Number of ticks simulated
system.cpu.committedInsts                   100000000                       # Number of instructions committed
system.cpu.committedOps                     100003793                       # Number of ops (including micro ops) committed
system.cpu.cpi                               2.650635                       # CPI: cycles per instruction
system.cpu.discardedOps                         21319                       # Number of ops (including micro ops) which were discarded before commit
system.cpu.idleCycles                       147642625                       # Total number of cycles that the object has spent stopped
system.cpu.ipc                               0.377268                       # IPC: instructions per cycle
system.cpu.numCycles                        265063507                       # number of cpu cycles simulated
system.cpu.numFetchSuspends                         0                       # Number of times Execute suspended instruction fetching
system.cpu.numWorkItemsCompleted                    0                       # number of work items this cpu completed
system.cpu.numWorkItemsStarted                      0                       # number of work items this cpu started
system.cpu.op_class_0::No_OpClass                   0      0.00%      0.00% # Class of committed instruction
system.cpu.op_class_0::IntAlu                49995768     49.99%     49.99% # Class of committed instruction
system.cpu.op_class_0::IntMult                     85      0.00%     49.99% # Class of committed instruction
system.cpu.op_class_0::IntDiv                       0      0.00%     49.99% # Class of committed instruction
system.cpu.op_class_0::FloatAdd                     0      0.00%     49.99% # Class of committed instruction
system.cpu.op_class_0::FloatCmp                     0      0.00%     49.99% # Class of committed instruction
system.cpu.op_class_0::FloatCvt                     0      0.00%     49.99% # Class of committed instruction
system.cpu.op_class_0::FloatMult                    0      0.00%     49.99% # Class of committed instruction
system.cpu.op_class_0::FloatMultAcc                 0      0.00%     49.99% # Class of committed instruction
system.cpu.op_class_0::FloatDiv                     0      0.00%     49.99% # Class of committed instruction
system.cpu.op_class_0::FloatMisc                    0      0.00%     49.99% # Class of committed instruction
system.cpu.op_class_0::FloatSqrt                    0      0.00%     49.99% # Class of committed instruction
system.cpu.op_class_0::SimdAdd                      0      0.00%     49.99% # Class of committed instruction
system.cpu.op_class_0::SimdAddAcc                   0      0.00%     49.99% # Class of committed instruction
system.cpu.op_class_0::SimdAlu                      0      0.00%     49.99% # Class of committed instruction
system.cpu.op_class_0::SimdCmp                      0      0.00%     49.99% # Class of committed instruction
system.cpu.op_class_0::SimdCvt                      0      0.00%     49.99% # Class of committed instruction
system.cpu.op_class_0::SimdMisc                     0      0.00%     49.99% # Class of committed instruction
system.cpu.op_class_0::SimdMult                     0      0.00%     49.99% # Class of committed instruction
system.cpu.op_class_0::SimdMultAcc                  0      0.00%     49.99% # Class of committed instruction
system.cpu.op_class_0::SimdShift                    0      0.00%     49.99% # Class of committed instruction
system.cpu.op_class_0::SimdShiftAcc                 0      0.00%     49.99% # Class of committed instruction
system.cpu.op_class_0::SimdDiv                      0      0.00%     49.99% # Class of committed instruction
system.cpu.op_class_0::SimdSqrt                     0      0.00%     49.99% # Class of committed instruction
system.cpu.op_class_0::SimdFloatAdd                 0      0.00%     49.99% # Class of committed instruction
system.cpu.op_class_0::SimdFloatAlu                 0      0.00%     49.99% # Class of committed instruction
system.cpu.op_class_0::SimdFloatCmp                 2      0.00%     49.99% # Class of committed instruction
system.cpu.op_class_0::SimdFloatCvt                 0      0.00%     49.99% # Class of committed instruction
system.cpu.op_class_0::SimdFloatDiv                 0      0.00%     49.99% # Class of committed instruction
system.cpu.op_class_0::SimdFloatMisc               22      0.00%     49.99% # Class of committed instruction
system.cpu.op_class_0::SimdFloatMult                0      0.00%     49.99% # Class of committed instruction
system.cpu.op_class_0::SimdFloatMultAcc             0      0.00%     49.99% # Class of committed instruction
system.cpu.op_class_0::SimdFloatSqrt                0      0.00%     49.99% # Class of committed instruction
system.cpu.op_class_0::SimdReduceAdd                0      0.00%     49.99% # Class of committed instruction
system.cpu.op_class_0::SimdReduceAlu                0      0.00%     49.99% # Class of committed instruction
system.cpu.op_class_0::SimdReduceCmp                0      0.00%     49.99% # Class of committed instruction
system.cpu.op_class_0::SimdFloatReduceAdd            0      0.00%     49.99% # Class of committed instruction
system.cpu.op_class_0::SimdFloatReduceCmp            0      0.00%     49.99% # Class of committed instruction
system.cpu.op_class_0::SimdAes                      0      0.00%     49.99% # Class of committed instruction
system.cpu.op_class_0::SimdAesMix                   0      0.00%     49.99% # Class of committed instruction
system.cpu.op_class_0::SimdSha1Hash                 0      0.00%     49.99% # Class of committed instruction
system.cpu.op_class_0::SimdSha1Hash2                0      0.00%     49.99% # Class of committed instruction
system.cpu.op_class_0::SimdSha256Hash               0      0.00%     49.99% # Class of committed instruction
system.cpu.op_class_0::SimdSha256Hash2              0      0.00%     49.99% # Class of committed instruction
system.cpu.op_class_0::SimdShaSigma2                0      0.00%     49.99% # Class of committed instruction
system.cpu.op_class_0::SimdShaSigma3                0      0.00%     49.99% # Class of committed instruction
system.cpu.op_class_0::SimdPredAlu                  0      0.00%     49.99% # Class of committed instruction
system.cpu.op_class_0::MemRead               36892130     36.89%     86.88% # Class of committed instruction
system.cpu.op_class_0::MemWrite              13115786     13.12%    100.00% # Class of committed instruction
system.cpu.op_class_0::FloatMemRead                 0      0.00%    100.00% # Class of committed instruction
system.cpu.op_class_0::FloatMemWrite                0      0.00%    100.00% # Class of committed instruction
system.cpu.op_class_0::IprAccess                    0      0.00%    100.00% # Class of committed instruction
system.cpu.op_class_0::InstPrefetch                 0      0.00%    100.00% # Class of committed instruction
system.cpu.op_class_0::total                100003793                       # Class of committed instruction
system.cpu.tickCycles                       117420882                       # Number of cycles that the object actually ticked
system.cpu.workload.numSyscalls                    18                       # Number of system calls
system.membus.snoop_filter.hit_multi_requests            0                       # Number of requests hitting in the snoop filter with multiple (>1) holders of the requested data.
system.membus.snoop_filter.hit_multi_snoops            0                       # Number of snoops hitting in the snoop filter with multiple (>1) holders of the requested data.
system.membus.snoop_filter.hit_single_requests      1479515                       # Number of requests hitting in the snoop filter with a single holder of the requested data.
system.membus.snoop_filter.hit_single_snoops            0                       # Number of snoops hitting in the snoop filter with a single holder of the requested data.
system.membus.snoop_filter.tot_requests       2967615                       # Total number of requests made to the snoop filter.
system.membus.snoop_filter.tot_snoops               0                       # Total number of snoops made to the snoop filter.
system.tol2bus.snoop_filter.hit_multi_requests        11654                       # Number of requests hitting in the snoop filter with multiple (>1) holders of the requested data.
system.tol2bus.snoop_filter.hit_multi_snoops            0                       # Number of snoops hitting in the snoop filter with multiple (>1) holders of the requested data.
system.tol2bus.snoop_filter.hit_single_requests      1528010                       # Number of requests hitting in the snoop filter with a single holder of the requested data.
system.tol2bus.snoop_filter.hit_single_snoops          393                       # Number of snoops hitting in the snoop filter with a single holder of the requested data.
system.tol2bus.snoop_filter.tot_requests      3056924                       # Total number of requests made to the snoop filter.
system.tol2bus.snoop_filter.tot_snoops            393                       # Total number of snoops made to the snoop filter.
system.clk_domain.clock                          1000                       # Clock period in ticks
system.cpu.branchPred.lookups                  606870                       # Number of BP lookups
system.cpu.branchPred.condPredicted            604720                       # Number of conditional branches predicted
system.cpu.branchPred.condIncorrect               848                       # Number of conditional branches incorrect
system.cpu.branchPred.BTBLookups               602596                       # Number of BTB lookups
system.cpu.branchPred.BTBHits                  601508                       # Number of BTB hits
system.cpu.branchPred.BTBHitPct             99.819448                       # BTB Hit Percentage
system.cpu.branchPred.RASUsed                     589                       # Number of times the RAS was used to get a target.
system.cpu.branchPred.RASIncorrect                  1                       # Number of incorrect RAS predictions.
system.cpu.branchPred.indirectLookups             384                       # Number of indirect predictor lookups.
system.cpu.branchPred.indirectHits                173                       # Number of indirect target hits.
system.cpu.branchPred.indirectMisses              211                       # Number of indirect misses.
system.cpu.branchPred.indirectMispredicted          102                       # Number of mispredicted indirect branches.
system.cpu.dcache.demand_hits::.cpu.data     45762329                       # number of demand (read+write) hits
system.cpu.dcache.demand_hits::total         45762329                       # number of demand (read+write) hits
system.cpu.dcache.overall_hits::.cpu.data     45762374                       # number of overall hits
system.cpu.dcache.overall_hits::total        45762374                       # number of overall hits
system.cpu.dcache.demand_misses::.cpu.data      3032638                       # number of demand (read+write) misses
system.cpu.dcache.demand_misses::total        3032638                       # number of demand (read+write) misses
system.cpu.dcache.overall_misses::.cpu.data      3032658                       # number of overall misses
system.cpu.dcache.overall_misses::total       3032658                       # number of overall misses
system.cpu.dcache.demand_miss_latency::.cpu.data 304877950000                       # number of demand (read+write) miss cycles
system.cpu.dcache.demand_miss_latency::total 304877950000                       # number of demand (read+write) miss cycles
system.cpu.dcache.overall_miss_latency::.cpu.data 304877950000                       # number of overall miss cycles
system.cpu.dcache.overall_miss_latency::total 304877950000                       # number of overall miss cycles
system.cpu.dcache.demand_accesses::.cpu.data     48794967                       # number of demand (read+write) accesses
system.cpu.dcache.demand_accesses::total     48794967                       # number of demand (read+write) accesses
system.cpu.dcache.overall_accesses::.cpu.data     48795032                       # number of overall (read+write) accesses
system.cpu.dcache.overall_accesses::total     48795032                       # number of overall (read+write) accesses
system.cpu.dcache.demand_miss_rate::.cpu.data     0.062151                       # miss rate for demand accesses
system.cpu.dcache.demand_miss_rate::total     0.062151                       # miss rate for demand accesses
system.cpu.dcache.overall_miss_rate::.cpu.data     0.062151                       # miss rate for overall accesses
system.cpu.dcache.overall_miss_rate::total     0.062151                       # miss rate for overall accesses
system.cpu.dcache.demand_avg_miss_latency::.cpu.data 100532.259373                       # average overall miss latency
system.cpu.dcache.demand_avg_miss_latency::total 100532.259373                       # average overall miss latency
system.cpu.dcache.overall_avg_miss_latency::.cpu.data 100531.596375                       # average overall miss latency
system.cpu.dcache.overall_avg_miss_latency::total 100531.596375                       # average overall miss latency
system.cpu.dcache.blocked_cycles::no_mshrs            0                       # number of cycles access was blocked
system.cpu.dcache.blocked_cycles::no_targets            0                       # number of cycles access was blocked
system.cpu.dcache.blocked::no_mshrs                 0                       # number of cycles access was blocked
system.cpu.dcache.blocked::no_targets               0                       # number of cycles access was blocked
system.cpu.dcache.avg_blocked_cycles::no_mshrs          nan                       # average number of cycles each access was blocked
system.cpu.dcache.avg_blocked_cycles::no_targets          nan                       # average number of cycles each access was blocked
system.cpu.dcache.writebacks::.writebacks      1516070                       # number of writebacks
system.cpu.dcache.writebacks::total           1516070                       # number of writebacks
system.cpu.dcache.demand_mshr_hits::.cpu.data      1504328                       # number of demand (read+write) MSHR hits
system.cpu.dcache.demand_mshr_hits::total      1504328                       # number of demand (read+write) MSHR hits
system.cpu.dcache.overall_mshr_hits::.cpu.data      1504328                       # number of overall MSHR hits
system.cpu.dcache.overall_mshr_hits::total      1504328                       # number of overall MSHR hits
system.cpu.dcache.demand_mshr_misses::.cpu.data      1528310                       # number of demand (read+write) MSHR misses
system.cpu.dcache.demand_mshr_misses::total      1528310                       # number of demand (read+write) MSHR misses
system.cpu.dcache.overall_mshr_misses::.cpu.data      1528328                       # number of overall MSHR misses
system.cpu.dcache.overall_mshr_misses::total      1528328                       # number of overall MSHR misses
system.cpu.dcache.demand_mshr_miss_latency::.cpu.data 157935164000                       # number of demand (read+write) MSHR miss cycles
system.cpu.dcache.demand_mshr_miss_latency::total 157935164000                       # number of demand (read+write) MSHR miss cycles
system.cpu.dcache.overall_mshr_miss_latency::.cpu.data 157937216000                       # number of overall MSHR miss cycles
system.cpu.dcache.overall_mshr_miss_latency::total 157937216000                       # number of overall MSHR miss cycles
system.cpu.dcache.demand_mshr_miss_rate::.cpu.data     0.031321                       # mshr miss rate for demand accesses
system.cpu.dcache.demand_mshr_miss_rate::total     0.031321                       # mshr miss rate for demand accesses
system.cpu.dcache.overall_mshr_miss_rate::.cpu.data     0.031321                       # mshr miss rate for overall accesses
system.cpu.dcache.overall_mshr_miss_rate::total     0.031321                       # mshr miss rate for overall accesses
system.cpu.dcache.demand_avg_mshr_miss_latency::.cpu.data 103339.743900                       # average overall mshr miss latency
system.cpu.dcache.demand_avg_mshr_miss_latency::total 103339.743900                       # average overall mshr miss latency
system.cpu.dcache.overall_avg_mshr_miss_latency::.cpu.data 103339.869452                       # average overall mshr miss latency
system.cpu.dcache.overall_avg_mshr_miss_latency::total 103339.869452                       # average overall mshr miss latency
system.cpu.dcache.replacements                1527817                       # number of replacements
system.cpu.dcache.ReadReq_hits::.cpu.data     35679133                       # number of ReadReq hits
system.cpu.dcache.ReadReq_hits::total        35679133                       # number of ReadReq hits
system.cpu.dcache.ReadReq_misses::.cpu.data        23392                       # number of ReadReq misses
system.cpu.dcache.ReadReq_misses::total         23392                       # number of ReadReq misses
system.cpu.dcache.ReadReq_miss_latency::.cpu.data   1069892000                       # number of ReadReq miss cycles
system.cpu.dcache.ReadReq_miss_latency::total   1069892000                       # number of ReadReq miss cycles
system.cpu.dcache.ReadReq_accesses::.cpu.data     35702525                       # number of ReadReq accesses(hits+misses)
system.cpu.dcache.ReadReq_accesses::total     35702525                       # number of ReadReq accesses(hits+misses)
system.cpu.dcache.ReadReq_miss_rate::.cpu.data     0.000655                       # miss rate for ReadReq accesses
system.cpu.dcache.ReadReq_miss_rate::total     0.000655                       # miss rate for ReadReq accesses
system.cpu.dcache.ReadReq_avg_miss_latency::.cpu.data 45737.517100                       # average ReadReq miss latency
system.cpu.dcache.ReadReq_avg_miss_latency::total 45737.517100                       # average ReadReq miss latency
system.cpu.dcache.ReadReq_mshr_hits::.cpu.data            7                       # number of ReadReq MSHR hits
system.cpu.dcache.ReadReq_mshr_hits::total            7                       # number of ReadReq MSHR hits
system.cpu.dcache.ReadReq_mshr_misses::.cpu.data        23385                       # number of ReadReq MSHR misses
system.cpu.dcache.ReadReq_mshr_misses::total        23385                       # number of ReadReq MSHR misses
system.cpu.dcache.ReadReq_mshr_miss_latency::.cpu.data   1022488000                       # number of ReadReq MSHR miss cycles
system.cpu.dcache.ReadReq_mshr_miss_latency::total   1022488000                       # number of ReadReq MSHR miss cycles
system.cpu.dcache.ReadReq_mshr_miss_rate::.cpu.data     0.000655                       # mshr miss rate for ReadReq accesses
system.cpu.dcache.ReadReq_mshr_miss_rate::total     0.000655                       # mshr miss rate for ReadReq accesses
system.cpu.dcache.ReadReq_avg_mshr_miss_latency::.cpu.data 43724.096643                       # average ReadReq mshr miss latency
system.cpu.dcache.ReadReq_avg_mshr_miss_latency::total 43724.096643                       # average ReadReq mshr miss latency
system.cpu.dcache.WriteReq_hits::.cpu.data     10083196                       # number of WriteReq hits
system.cpu.dcache.WriteReq_hits::total       10083196                       # number of WriteReq hits
system.cpu.dcache.WriteReq_misses::.cpu.data      3009246                       # number of WriteReq misses
system.cpu.dcache.WriteReq_misses::total      3009246                       # number of WriteReq misses
system.cpu.dcache.WriteReq_miss_latency::.cpu.data 303808058000                       # number of WriteReq miss cycles
system.cpu.dcache.WriteReq_miss_latency::total 303808058000                       # number of WriteReq miss cycles
system.cpu.dcache.WriteReq_accesses::.cpu.data     13092442                       # number of WriteReq accesses(hits+misses)
system.cpu.dcache.WriteReq_accesses::total     13092442                       # number of WriteReq accesses(hits+misses)
system.cpu.dcache.WriteReq_miss_rate::.cpu.data     0.229846                       # miss rate for WriteReq accesses
system.cpu.dcache.WriteReq_miss_rate::total     0.229846                       # miss rate for WriteReq accesses
system.cpu.dcache.WriteReq_avg_miss_latency::.cpu.data 100958.199496                       # average WriteReq miss latency
system.cpu.dcache.WriteReq_avg_miss_latency::total 100958.199496                       # average WriteReq miss latency
system.cpu.dcache.WriteReq_mshr_hits::.cpu.data      1504321                       # number of WriteReq MSHR hits
system.cpu.dcache.WriteReq_mshr_hits::total      1504321                       # number of WriteReq MSHR hits
system.cpu.dcache.WriteReq_mshr_misses::.cpu.data      1504925                       # number of WriteReq MSHR misses
system.cpu.dcache.WriteReq_mshr_misses::total      1504925                       # number of WriteReq MSHR misses
system.cpu.dcache.WriteReq_mshr_miss_latency::.cpu.data 156912676000                       # number of WriteReq MSHR miss cycles
system.cpu.dcache.WriteReq_mshr_miss_latency::total 156912676000                       # number of WriteReq MSHR miss cycles
system.cpu.dcache.WriteReq_mshr_miss_rate::.cpu.data     0.114946                       # mshr miss rate for WriteReq accesses
system.cpu.dcache.WriteReq_mshr_miss_rate::total     0.114946                       # mshr miss rate for WriteReq accesses
system.cpu.dcache.WriteReq_avg_mshr_miss_latency::.cpu.data 104266.110271                       # average WriteReq mshr miss latency
system.cpu.dcache.WriteReq_avg_mshr_miss_latency::total 104266.110271                       # average WriteReq mshr miss latency
system.cpu.dcache.SoftPFReq_hits::.cpu.data           45                       # number of SoftPFReq hits
system.cpu.dcache.SoftPFReq_hits::total            45                       # number of SoftPFReq hits
system.cpu.dcache.SoftPFReq_misses::.cpu.data           20                       # number of SoftPFReq misses
system.cpu.dcache.SoftPFReq_misses::total           20                       # number of SoftPFReq misses
system.cpu.dcache.SoftPFReq_accesses::.cpu.data           65                       # number of SoftPFReq accesses(hits+misses)
system.cpu.dcache.SoftPFReq_accesses::total           65                       # number of SoftPFReq accesses(hits+misses)
system.cpu.dcache.SoftPFReq_miss_rate::.cpu.data     0.307692                       # miss rate for SoftPFReq accesses
system.cpu.dcache.SoftPFReq_miss_rate::total     0.307692                       # miss rate for SoftPFReq accesses
system.cpu.dcache.SoftPFReq_mshr_misses::.cpu.data           18                       # number of SoftPFReq MSHR misses
system.cpu.dcache.SoftPFReq_mshr_misses::total           18                       # number of SoftPFReq MSHR misses
system.cpu.dcache.SoftPFReq_mshr_miss_latency::.cpu.data      2052000                       # number of SoftPFReq MSHR miss cycles
system.cpu.dcache.SoftPFReq_mshr_miss_latency::total      2052000                       # number of SoftPFReq MSHR miss cycles
system.cpu.dcache.SoftPFReq_mshr_miss_rate::.cpu.data     0.276923                       # mshr miss rate for SoftPFReq accesses
system.cpu.dcache.SoftPFReq_mshr_miss_rate::total     0.276923                       # mshr miss rate for SoftPFReq accesses
system.cpu.dcache.SoftPFReq_avg_mshr_miss_latency::.cpu.data       114000                       # average SoftPFReq mshr miss latency
system.cpu.dcache.SoftPFReq_avg_mshr_miss_latency::total       114000                       # average SoftPFReq mshr miss latency
system.cpu.dcache.LoadLockedReq_hits::.cpu.data           13                       # number of LoadLockedReq hits
system.cpu.dcache.LoadLockedReq_hits::total           13                       # number of LoadLockedReq hits
system.cpu.dcache.LoadLockedReq_misses::.cpu.data            1                       # number of LoadLockedReq misses
system.cpu.dcache.LoadLockedReq_misses::total            1                       # number of LoadLockedReq misses
system.cpu.dcache.LoadLockedReq_miss_latency::.cpu.data        26000                       # number of LoadLockedReq miss cycles
system.cpu.dcache.LoadLockedReq_miss_latency::total        26000                       # number of LoadLockedReq miss cycles
system.cpu.dcache.LoadLockedReq_accesses::.cpu.data           14                       # number of LoadLockedReq accesses(hits+misses)
system.cpu.dcache.LoadLockedReq_accesses::total           14                       # number of LoadLockedReq accesses(hits+misses)
system.cpu.dcache.LoadLockedReq_miss_rate::.cpu.data     0.071429                       # miss rate for LoadLockedReq accesses
system.cpu.dcache.LoadLockedReq_miss_rate::total     0.071429                       # miss rate for LoadLockedReq accesses
system.cpu.dcache.LoadLockedReq_avg_miss_latency::.cpu.data        26000                       # average LoadLockedReq miss latency
system.cpu.dcache.LoadLockedReq_avg_miss_latency::total        26000                       # average LoadLockedReq miss latency
system.cpu.dcache.LoadLockedReq_mshr_misses::.cpu.data            1                       # number of LoadLockedReq MSHR misses
system.cpu.dcache.LoadLockedReq_mshr_misses::total            1                       # number of LoadLockedReq MSHR misses
system.cpu.dcache.LoadLockedReq_mshr_miss_latency::.cpu.data        24000                       # number of LoadLockedReq MSHR miss cycles
system.cpu.dcache.LoadLockedReq_mshr_miss_latency::total        24000                       # number of LoadLockedReq MSHR miss cycles
system.cpu.dcache.LoadLockedReq_mshr_miss_rate::.cpu.data     0.071429                       # mshr miss rate for LoadLockedReq accesses
system.cpu.dcache.LoadLockedReq_mshr_miss_rate::total     0.071429                       # mshr miss rate for LoadLockedReq accesses
system.cpu.dcache.LoadLockedReq_avg_mshr_miss_latency::.cpu.data        24000                       # average LoadLockedReq mshr miss latency
system.cpu.dcache.LoadLockedReq_avg_mshr_miss_latency::total        24000                       # average LoadLockedReq mshr miss latency
system.cpu.dcache.StoreCondReq_hits::.cpu.data           14                       # number of StoreCondReq hits
system.cpu.dcache.StoreCondReq_hits::total           14                       # number of StoreCondReq hits
system.cpu.dcache.StoreCondReq_accesses::.cpu.data           14                       # number of StoreCondReq accesses(hits+misses)
system.cpu.dcache.StoreCondReq_accesses::total           14                       # number of StoreCondReq accesses(hits+misses)
system.cpu.dcache.power_state.pwrStateResidencyTicks::UNDEFINED 265063507000                       # Cumulative time (in ticks) in various power states
system.cpu.dcache.tags.tagsinuse           511.802439                       # Cycle average of tags in use
system.cpu.dcache.tags.total_refs            47290730                       # Total number of references to valid blocks.
system.cpu.dcache.tags.sampled_refs           1528329                       # Sample count of references to valid blocks.
system.cpu.dcache.tags.avg_refs             30.942768                       # Average number of references to valid blocks.
system.cpu.dcache.tags.warmup_cycle            223000                       # Cycle when the warmup percentage was hit.
system.cpu.dcache.tags.occ_blocks::.cpu.data   511.802439                       # Average occupied blocks per requestor
system.cpu.dcache.tags.occ_percent::.cpu.data     0.999614                       # Average percentage of cache occupancy
system.cpu.dcache.tags.occ_percent::total     0.999614                       # Average percentage of cache occupancy
system.cpu.dcache.tags.occ_task_id_blocks::1024          512                       # Occupied blocks per task id
system.cpu.dcache.tags.age_task_id_blocks_1024::0           57                       # Occupied blocks per task id
system.cpu.dcache.tags.age_task_id_blocks_1024::1          455                       # Occupied blocks per task id
system.cpu.dcache.tags.occ_task_id_percent::1024            1                       # Percentage of cache occupancy per task id
system.cpu.dcache.tags.tag_accesses          50323389                       # Number of tag accesses
system.cpu.dcache.tags.data_accesses         50323389                       # Number of data accesses
system.cpu.dcache.tags.power_state.pwrStateResidencyTicks::UNDEFINED 265063507000                       # Cumulative time (in ticks) in various power states
system.cpu.dtb.instHits                             0                       # ITB inst hits
system.cpu.dtb.instMisses                           0                       # ITB inst misses
system.cpu.dtb.readHits                             0                       # DTB read hits
system.cpu.dtb.readMisses                           0                       # DTB read misses
system.cpu.dtb.writeHits                            0                       # DTB write hits
system.cpu.dtb.writeMisses                          0                       # DTB write misses
system.cpu.dtb.inserts                              0                       # Number of times an entry is inserted into the TLB
system.cpu.dtb.flushTlb                             0                       # Number of times complete TLB was flushed
system.cpu.dtb.flushTlbMva                          0                       # Number of times TLB was flushed by MVA
system.cpu.dtb.flushTlbMvaAsid                      0                       # Number of times TLB was flushed by MVA & ASID
system.cpu.dtb.flushTlbAsid                         0                       # Number of times TLB was flushed by ASID
system.cpu.dtb.flushedEntries                       0                       # Number of entries that have been flushed from TLB
system.cpu.dtb.alignFaults                          0                       # Number of TLB faults due to alignment restrictions
system.cpu.dtb.prefetchFaults                       0                       # Number of TLB faults due to prefetch
system.cpu.dtb.domainFaults                         0                       # Number of TLB faults due to domain restrictions
system.cpu.dtb.permsFaults                          0                       # Number of TLB faults due to permissions restrictions
system.cpu.dtb.readAccesses                         0                       # DTB read accesses
system.cpu.dtb.writeAccesses                        0                       # DTB write accesses
system.cpu.dtb.instAccesses                         0                       # ITB inst accesses
system.cpu.dtb.hits                                 0                       # Total TLB (inst and data) hits
system.cpu.dtb.misses                               0                       # Total TLB (inst and data) misses
system.cpu.dtb.accesses                             0                       # Total TLB (inst and data) accesses
system.cpu.dtb.stage2_mmu.stage2_tlb.instHits            0                       # ITB inst hits
system.cpu.dtb.stage2_mmu.stage2_tlb.instMisses            0                       # ITB inst misses
system.cpu.dtb.stage2_mmu.stage2_tlb.readHits            0                       # DTB read hits
system.cpu.dtb.stage2_mmu.stage2_tlb.readMisses            0                       # DTB read misses
system.cpu.dtb.stage2_mmu.stage2_tlb.writeHits            0                       # DTB write hits
system.cpu.dtb.stage2_mmu.stage2_tlb.writeMisses            0                       # DTB write misses
system.cpu.dtb.stage2_mmu.stage2_tlb.inserts            0                       # Number of times an entry is inserted into the TLB
system.cpu.dtb.stage2_mmu.stage2_tlb.flushTlb            0                       # Number of times complete TLB was flushed
system.cpu.dtb.stage2_mmu.stage2_tlb.flushTlbMva            0                       # Number of times TLB was flushed by MVA
system.cpu.dtb.stage2_mmu.stage2_tlb.flushTlbMvaAsid            0                       # Number of times TLB was flushed by MVA & ASID
system.cpu.dtb.stage2_mmu.stage2_tlb.flushTlbAsid            0                       # Number of times TLB was flushed by ASID
system.cpu.dtb.stage2_mmu.stage2_tlb.flushedEntries            0                       # Number of entries that have been flushed from TLB
system.cpu.dtb.stage2_mmu.stage2_tlb.alignFaults            0                       # Number of TLB faults due to alignment restrictions
system.cpu.dtb.stage2_mmu.stage2_tlb.prefetchFaults            0                       # Number of TLB faults due to prefetch
system.cpu.dtb.stage2_mmu.stage2_tlb.domainFaults            0                       # Number of TLB faults due to domain restrictions
system.cpu.dtb.stage2_mmu.stage2_tlb.permsFaults            0                       # Number of TLB faults due to permissions restrictions
system.cpu.dtb.stage2_mmu.stage2_tlb.readAccesses            0                       # DTB read accesses
system.cpu.dtb.stage2_mmu.stage2_tlb.writeAccesses            0                       # DTB write accesses
system.cpu.dtb.stage2_mmu.stage2_tlb.instAccesses            0                       # ITB inst accesses
system.cpu.dtb.stage2_mmu.stage2_tlb.hits            0                       # Total TLB (inst and data) hits
system.cpu.dtb.stage2_mmu.stage2_tlb.misses            0                       # Total TLB (inst and data) misses
system.cpu.dtb.stage2_mmu.stage2_tlb.accesses            0                       # Total TLB (inst and data) accesses
system.cpu.dtb.stage2_mmu.stage2_tlb.walker.walks            0                       # Table walker walks requested
system.cpu.dtb.stage2_mmu.stage2_tlb.walker.requestOrigin_Requested::Data            0                       # Table walker requests started/completed, data/inst
system.cpu.dtb.stage2_mmu.stage2_tlb.walker.requestOrigin_Requested::Inst            0                       # Table walker requests started/completed, data/inst
system.cpu.dtb.stage2_mmu.stage2_tlb.walker.requestOrigin_Requested::total            0                       # Table walker requests started/completed, data/inst
system.cpu.dtb.stage2_mmu.stage2_tlb.walker.requestOrigin_Completed::Data            0                       # Table walker requests started/completed, data/inst
system.cpu.dtb.stage2_mmu.stage2_tlb.walker.requestOrigin_Completed::Inst            0                       # Table walker requests started/completed, data/inst
system.cpu.dtb.stage2_mmu.stage2_tlb.walker.requestOrigin_Completed::total            0                       # Table walker requests started/completed, data/inst
system.cpu.dtb.stage2_mmu.stage2_tlb.walker.requestOrigin::total            0                       # Table walker requests started/completed, data/inst
system.cpu.dtb.stage2_mmu.stage2_tlb.walker.power_state.pwrStateResidencyTicks::UNDEFINED 265063507000                       # Cumulative time (in ticks) in various power states
system.cpu.dtb.walker.walks                         0                       # Table walker walks requested
system.cpu.dtb.walker.requestOrigin_Requested::Data            0                       # Table walker requests started/completed, data/inst
system.cpu.dtb.walker.requestOrigin_Requested::Inst            0                       # Table walker requests started/completed, data/inst
system.cpu.dtb.walker.requestOrigin_Requested::total            0                       # Table walker requests started/completed, data/inst
system.cpu.dtb.walker.requestOrigin_Completed::Data            0                       # Table walker requests started/completed, data/inst
system.cpu.dtb.walker.requestOrigin_Completed::Inst            0                       # Table walker requests started/completed, data/inst
system.cpu.dtb.walker.requestOrigin_Completed::total            0                       # Table walker requests started/completed, data/inst
system.cpu.dtb.walker.requestOrigin::total            0                       # Table walker requests started/completed, data/inst
system.cpu.dtb.walker.power_state.pwrStateResidencyTicks::UNDEFINED 265063507000                       # Cumulative time (in ticks) in various power states
system.cpu.fetch2.intInstructions            49670037                       # Number of integer instructions successfully decoded
system.cpu.fetch2.fpInstructions                    0                       # Number of floating point instructions successfully decoded
system.cpu.fetch2.vecInstructions                   0                       # Number of SIMD instructions successfully decoded
system.cpu.fetch2.loadInstructions           37092066                       # Number of memory load instructions successfully decoded
system.cpu.fetch2.storeInstructions          13161089                       # Number of memory store instructions successfully decoded
system.cpu.fetch2.amoInstructions                   0                       # Number of memory atomic instructions successfully decoded
system.cpu.icache.demand_hits::.cpu.inst      6046027                       # number of demand (read+write) hits
system.cpu.icache.demand_hits::total          6046027                       # number of demand (read+write) hits
system.cpu.icache.overall_hits::.cpu.inst      6046027                       # number of overall hits
system.cpu.icache.overall_hits::total         6046027                       # number of overall hits
system.cpu.icache.demand_misses::.cpu.inst          586                       # number of demand (read+write) misses
system.cpu.icache.demand_misses::total            586                       # number of demand (read+write) misses
system.cpu.icache.overall_misses::.cpu.inst          586                       # number of overall misses
system.cpu.icache.overall_misses::total           586                       # number of overall misses
system.cpu.icache.demand_miss_latency::.cpu.inst     52756000                       # number of demand (read+write) miss cycles
system.cpu.icache.demand_miss_latency::total     52756000                       # number of demand (read+write) miss cycles
system.cpu.icache.overall_miss_latency::.cpu.inst     52756000                       # number of overall miss cycles
system.cpu.icache.overall_miss_latency::total     52756000                       # number of overall miss cycles
system.cpu.icache.demand_accesses::.cpu.inst      6046613                       # number of demand (read+write) accesses
system.cpu.icache.demand_accesses::total      6046613                       # number of demand (read+write) accesses
system.cpu.icache.overall_accesses::.cpu.inst      6046613                       # number of overall (read+write) accesses
system.cpu.icache.overall_accesses::total      6046613                       # number of overall (read+write) accesses
system.cpu.icache.demand_miss_rate::.cpu.inst     0.000097                       # miss rate for demand accesses
system.cpu.icache.demand_miss_rate::total     0.000097                       # miss rate for demand accesses
system.cpu.icache.overall_miss_rate::.cpu.inst     0.000097                       # miss rate for overall accesses
system.cpu.icache.overall_miss_rate::total     0.000097                       # miss rate for overall accesses
system.cpu.icache.demand_avg_miss_latency::.cpu.inst 90027.303754                       # average overall miss latency
system.cpu.icache.demand_avg_miss_latency::total 90027.303754                       # average overall miss latency
system.cpu.icache.overall_avg_miss_latency::.cpu.inst 90027.303754                       # average overall miss latency
system.cpu.icache.overall_avg_miss_latency::total 90027.303754                       # average overall miss latency
system.cpu.icache.blocked_cycles::no_mshrs            0                       # number of cycles access was blocked
system.cpu.icache.blocked_cycles::no_targets            0                       # number of cycles access was blocked
system.cpu.icache.blocked::no_mshrs                 0                       # number of cycles access was blocked
system.cpu.icache.blocked::no_targets               0                       # number of cycles access was blocked
system.cpu.icache.avg_blocked_cycles::no_mshrs          nan                       # average number of cycles each access was blocked
system.cpu.icache.avg_blocked_cycles::no_targets          nan                       # average number of cycles each access was blocked
system.cpu.icache.writebacks::.writebacks          192                       # number of writebacks
system.cpu.icache.writebacks::total               192                       # number of writebacks
system.cpu.icache.demand_mshr_misses::.cpu.inst          586                       # number of demand (read+write) MSHR misses
system.cpu.icache.demand_mshr_misses::total          586                       # number of demand (read+write) MSHR misses
system.cpu.icache.overall_mshr_misses::.cpu.inst          586                       # number of overall MSHR misses
system.cpu.icache.overall_mshr_misses::total          586                       # number of overall MSHR misses
system.cpu.icache.demand_mshr_miss_latency::.cpu.inst     51584000                       # number of demand (read+write) MSHR miss cycles
system.cpu.icache.demand_mshr_miss_latency::total     51584000                       # number of demand (read+write) MSHR miss cycles
system.cpu.icache.overall_mshr_miss_latency::.cpu.inst     51584000                       # number of overall MSHR miss cycles
system.cpu.icache.overall_mshr_miss_latency::total     51584000                       # number of overall MSHR miss cycles
system.cpu.icache.demand_mshr_miss_rate::.cpu.inst     0.000097                       # mshr miss rate for demand accesses
system.cpu.icache.demand_mshr_miss_rate::total     0.000097                       # mshr miss rate for demand accesses
system.cpu.icache.overall_mshr_miss_rate::.cpu.inst     0.000097                       # mshr miss rate for overall accesses
system.cpu.icache.overall_mshr_miss_rate::total     0.000097                       # mshr miss rate for overall accesses
system.cpu.icache.demand_avg_mshr_miss_latency::.cpu.inst 88027.303754                       # average overall mshr miss latency
system.cpu.icache.demand_avg_mshr_miss_latency::total 88027.303754                       # average overall mshr miss latency
system.cpu.icache.overall_avg_mshr_miss_latency::.cpu.inst 88027.303754                       # average overall mshr miss latency
system.cpu.icache.overall_avg_mshr_miss_latency::total 88027.303754                       # average overall mshr miss latency
system.cpu.icache.replacements                    192                       # number of replacements
system.cpu.icache.ReadReq_hits::.cpu.inst      6046027                       # number of ReadReq hits
system.cpu.icache.ReadReq_hits::total         6046027                       # number of ReadReq hits
system.cpu.icache.ReadReq_misses::.cpu.inst          586                       # number of ReadReq misses
system.cpu.icache.ReadReq_misses::total           586                       # number of ReadReq misses
system.cpu.icache.ReadReq_miss_latency::.cpu.inst     52756000                       # number of ReadReq miss cycles
system.cpu.icache.ReadReq_miss_latency::total     52756000                       # number of ReadReq miss cycles
system.cpu.icache.ReadReq_accesses::.cpu.inst      6046613                       # number of ReadReq accesses(hits+misses)
system.cpu.icache.ReadReq_accesses::total      6046613                       # number of ReadReq accesses(hits+misses)
system.cpu.icache.ReadReq_miss_rate::.cpu.inst     0.000097                       # miss rate for ReadReq accesses
system.cpu.icache.ReadReq_miss_rate::total     0.000097                       # miss rate for ReadReq accesses
system.cpu.icache.ReadReq_avg_miss_latency::.cpu.inst 90027.303754                       # average ReadReq miss latency
system.cpu.icache.ReadReq_avg_miss_latency::total 90027.303754                       # average ReadReq miss latency
system.cpu.icache.ReadReq_mshr_misses::.cpu.inst          586                       # number of ReadReq MSHR misses
system.cpu.icache.ReadReq_mshr_misses::total          586                       # number of ReadReq MSHR misses
system.cpu.icache.ReadReq_mshr_miss_latency::.cpu.inst     51584000                       # number of ReadReq MSHR miss cycles
system.cpu.icache.ReadReq_mshr_miss_latency::total     51584000                       # number of ReadReq MSHR miss cycles
system.cpu.icache.ReadReq_mshr_miss_rate::.cpu.inst     0.000097                       # mshr miss rate for ReadReq accesses
system.cpu.icache.ReadReq_mshr_miss_rate::total     0.000097                       # mshr miss rate for ReadReq accesses
system.cpu.icache.ReadReq_avg_mshr_miss_latency::.cpu.inst 88027.303754                       # average ReadReq mshr miss latency
system.cpu.icache.ReadReq_avg_mshr_miss_latency::total 88027.303754                       # average ReadReq mshr miss latency
system.cpu.icache.power_state.pwrStateResidencyTicks::UNDEFINED 265063507000                       # Cumulative time (in ticks) in various power states
system.cpu.icache.tags.tagsinuse           393.946509                       # Cycle average of tags in use
system.cpu.icache.tags.total_refs             6046613                       # Total number of references to valid blocks.
system.cpu.icache.tags.sampled_refs               586                       # Sample count of references to valid blocks.
system.cpu.icache.tags.avg_refs          10318.452218                       # Average number of references to valid blocks.
system.cpu.icache.tags.warmup_cycle            108000                       # Cycle when the warmup percentage was hit.
system.cpu.icache.tags.occ_blocks::.cpu.inst   393.946509                       # Average occupied blocks per requestor
system.cpu.icache.tags.occ_percent::.cpu.inst     0.384713                       # Average percentage of cache occupancy
system.cpu.icache.tags.occ_percent::total     0.384713                       # Average percentage of cache occupancy
system.cpu.icache.tags.occ_task_id_blocks::1024          394                       # Occupied blocks per task id
system.cpu.icache.tags.age_task_id_blocks_1024::4          394                       # Occupied blocks per task id
system.cpu.icache.tags.occ_task_id_percent::1024     0.384766                       # Percentage of cache occupancy per task id
system.cpu.icache.tags.tag_accesses           6047199                       # Number of tag accesses
system.cpu.icache.tags.data_accesses          6047199                       # Number of data accesses
system.cpu.icache.tags.power_state.pwrStateResidencyTicks::UNDEFINED 265063507000                       # Cumulative time (in ticks) in various power states
system.cpu.itb.instHits                             0                       # ITB inst hits
system.cpu.itb.instMisses                           0                       # ITB inst misses
system.cpu.itb.readHits                             0                       # DTB read hits
system.cpu.itb.readMisses                           0                       # DTB read misses
system.cpu.itb.writeHits                            0                       # DTB write hits
system.cpu.itb.writeMisses                          0                       # DTB write misses
system.cpu.itb.inserts                              0                       # Number of times an entry is inserted into the TLB
system.cpu.itb.flushTlb                             0                       # Number of times complete TLB was flushed
system.cpu.itb.flushTlbMva                          0                       # Number of times TLB was flushed by MVA
system.cpu.itb.flushTlbMvaAsid                      0                       # Number of times TLB was flushed by MVA & ASID
system.cpu.itb.flushTlbAsid                         0                       # Number of times TLB was flushed by ASID
system.cpu.itb.flushedEntries                       0                       # Number of entries that have been flushed from TLB
system.cpu.itb.alignFaults                          0                       # Number of TLB faults due to alignment restrictions
system.cpu.itb.prefetchFaults                       0                       # Number of TLB faults due to prefetch
system.cpu.itb.domainFaults                         0                       # Number of TLB faults due to domain restrictions
system.cpu.itb.permsFaults                          0                       # Number of TLB faults due to permissions restrictions
system.cpu.itb.readAccesses                         0                       # DTB read accesses
system.cpu.itb.writeAccesses                        0                       # DTB write accesses
system.cpu.itb.instAccesses                         0                       # ITB inst accesses
system.cpu.itb.hits                                 0                       # Total TLB (inst and data) hits
system.cpu.itb.misses                               0                       # Total TLB (inst and data) misses
system.cpu.itb.accesses                             0                       # Total TLB (inst and data) accesses
system.cpu.itb.stage2_mmu.stage2_tlb.instHits            0                       # ITB inst hits
system.cpu.itb.stage2_mmu.stage2_tlb.instMisses            0                       # ITB inst misses
system.cpu.itb.stage2_mmu.stage2_tlb.readHits            0                       # DTB read hits
system.cpu.itb.stage2_mmu.stage2_tlb.readMisses            0                       # DTB read misses
system.cpu.itb.stage2_mmu.stage2_tlb.writeHits            0                       # DTB write hits
system.cpu.itb.stage2_mmu.stage2_tlb.writeMisses            0                       # DTB write misses
system.cpu.itb.stage2_mmu.stage2_tlb.inserts            0                       # Number of times an entry is inserted into the TLB
system.cpu.itb.stage2_mmu.stage2_tlb.flushTlb            0                       # Number of times complete TLB was flushed
system.cpu.itb.stage2_mmu.stage2_tlb.flushTlbMva            0                       # Number of times TLB was flushed by MVA
system.cpu.itb.stage2_mmu.stage2_tlb.flushTlbMvaAsid            0                       # Number of times TLB was flushed by MVA & ASID
system.cpu.itb.stage2_mmu.stage2_tlb.flushTlbAsid            0                       # Number of times TLB was flushed by ASID
system.cpu.itb.stage2_mmu.stage2_tlb.flushedEntries            0                       # Number of entries that have been flushed from TLB
system.cpu.itb.stage2_mmu.stage2_tlb.alignFaults            0                       # Number of TLB faults due to alignment restrictions
system.cpu.itb.stage2_mmu.stage2_tlb.prefetchFaults            0                       # Number of TLB faults due to prefetch
system.cpu.itb.stage2_mmu.stage2_tlb.domainFaults            0                       # Number of TLB faults due to domain restrictions
system.cpu.itb.stage2_mmu.stage2_tlb.permsFaults            0                       # Number of TLB faults due to permissions restrictions
system.cpu.itb.stage2_mmu.stage2_tlb.readAccesses            0                       # DTB read accesses
system.cpu.itb.stage2_mmu.stage2_tlb.writeAccesses            0                       # DTB write accesses
system.cpu.itb.stage2_mmu.stage2_tlb.instAccesses            0                       # ITB inst accesses
system.cpu.itb.stage2_mmu.stage2_tlb.hits            0                       # Total TLB (inst and data) hits
system.cpu.itb.stage2_mmu.stage2_tlb.misses            0                       # Total TLB (inst and data) misses
system.cpu.itb.stage2_mmu.stage2_tlb.accesses            0                       # Total TLB (inst and data) accesses
system.cpu.itb.stage2_mmu.stage2_tlb.walker.walks            0                       # Table walker walks requested
system.cpu.itb.stage2_mmu.stage2_tlb.walker.requestOrigin_Requested::Data            0                       # Table walker requests started/completed, data/inst
system.cpu.itb.stage2_mmu.stage2_tlb.walker.requestOrigin_Requested::Inst            0                       # Table walker requests started/completed, data/inst
system.cpu.itb.stage2_mmu.stage2_tlb.walker.requestOrigin_Requested::total            0                       # Table walker requests started/completed, data/inst
system.cpu.itb.stage2_mmu.stage2_tlb.walker.requestOrigin_Completed::Data            0                       # Table walker requests started/completed, data/inst
system.cpu.itb.stage2_mmu.stage2_tlb.walker.requestOrigin_Completed::Inst            0                       # Table walker requests started/completed, data/inst
system.cpu.itb.stage2_mmu.stage2_tlb.walker.requestOrigin_Completed::total            0                       # Table walker requests started/completed, data/inst
system.cpu.itb.stage2_mmu.stage2_tlb.walker.requestOrigin::total            0                       # Table walker requests started/completed, data/inst
system.cpu.itb.stage2_mmu.stage2_tlb.walker.power_state.pwrStateResidencyTicks::UNDEFINED 265063507000                       # Cumulative time (in ticks) in various power states
system.cpu.itb.walker.walks                         0                       # Table walker walks requested
system.cpu.itb.walker.requestOrigin_Requested::Data            0                       # Table walker requests started/completed, data/inst
system.cpu.itb.walker.requestOrigin_Requested::Inst            0                       # Table walker requests started/completed, data/inst
system.cpu.itb.walker.requestOrigin_Requested::total            0                       # Table walker requests started/completed, data/inst
system.cpu.itb.walker.requestOrigin_Completed::Data            0                       # Table walker requests started/completed, data/inst
system.cpu.itb.walker.requestOrigin_Completed::Inst            0                       # Table walker requests started/completed, data/inst
system.cpu.itb.walker.requestOrigin_Completed::total            0                       # Table walker requests started/completed, data/inst
system.cpu.itb.walker.requestOrigin::total            0                       # Table walker requests started/completed, data/inst
system.cpu.itb.walker.power_state.pwrStateResidencyTicks::UNDEFINED 265063507000                       # Cumulative time (in ticks) in various power states
system.cpu.power_state.pwrStateResidencyTicks::ON 265063507000                       # Cumulative time (in ticks) in various power states
system.cpu.thread_0.numInsts                100000000                       # Number of Instructions committed
system.cpu.thread_0.numOps                  100003793                       # Number of Ops committed
system.cpu.thread_0.numMemRefs                      0                       # Number of Memory References
system.cpu_clk_domain.clock                      1000                       # Clock period in ticks
system.cpu_voltage_domain.voltage                   1                       # Voltage in Volts
system.l2.demand_hits::.cpu.inst                   91                       # number of demand (read+write) hits
system.l2.demand_hits::.cpu.data                40720                       # number of demand (read+write) hits
system.l2.demand_hits::total                    40811                       # number of demand (read+write) hits
system.l2.overall_hits::.cpu.inst                  91                       # number of overall hits
system.l2.overall_hits::.cpu.data               40720                       # number of overall hits
system.l2.overall_hits::total                   40811                       # number of overall hits
system.l2.demand_misses::.cpu.inst                495                       # number of demand (read+write) misses
system.l2.demand_misses::.cpu.data            1487609                       # number of demand (read+write) misses
system.l2.demand_misses::total                1488104                       # number of demand (read+write) misses
system.l2.overall_misses::.cpu.inst               495                       # number of overall misses
system.l2.overall_misses::.cpu.data           1487609                       # number of overall misses
system.l2.overall_misses::total               1488104                       # number of overall misses
system.l2.demand_miss_latency::.cpu.inst     47887000                       # number of demand (read+write) miss cycles
system.l2.demand_miss_latency::.cpu.data 151468483000                       # number of demand (read+write) miss cycles
system.l2.demand_miss_latency::total     151516370000                       # number of demand (read+write) miss cycles
system.l2.overall_miss_latency::.cpu.inst     47887000                       # number of overall miss cycles
system.l2.overall_miss_latency::.cpu.data 151468483000                       # number of overall miss cycles
system.l2.overall_miss_latency::total    151516370000                       # number of overall miss cycles
system.l2.demand_accesses::.cpu.inst              586                       # number of demand (read+write) accesses
system.l2.demand_accesses::.cpu.data          1528329                       # number of demand (read+write) accesses
system.l2.demand_accesses::total              1528915                       # number of demand (read+write) accesses
system.l2.overall_accesses::.cpu.inst             586                       # number of overall (read+write) accesses
system.l2.overall_accesses::.cpu.data         1528329                       # number of overall (read+write) accesses
system.l2.overall_accesses::total             1528915                       # number of overall (read+write) accesses
system.l2.demand_miss_rate::.cpu.inst        0.844710                       # miss rate for demand accesses
system.l2.demand_miss_rate::.cpu.data        0.973357                       # miss rate for demand accesses
system.l2.demand_miss_rate::total            0.973307                       # miss rate for demand accesses
system.l2.overall_miss_rate::.cpu.inst       0.844710                       # miss rate for overall accesses
system.l2.overall_miss_rate::.cpu.data       0.973357                       # miss rate for overall accesses
system.l2.overall_miss_rate::total           0.973307                       # miss rate for overall accesses
system.l2.demand_avg_miss_latency::.cpu.inst 96741.414141                       # average overall miss latency
system.l2.demand_avg_miss_latency::.cpu.data 101820.090494                       # average overall miss latency
system.l2.demand_avg_miss_latency::total 101818.401133                       # average overall miss latency
system.l2.overall_avg_miss_latency::.cpu.inst 96741.414141                       # average overall miss latency
system.l2.overall_avg_miss_latency::.cpu.data 101820.090494                       # average overall miss latency
system.l2.overall_avg_miss_latency::total 101818.401133                       # average overall miss latency
system.l2.blocked_cycles::no_mshrs                  0                       # number of cycles access was blocked
system.l2.blocked_cycles::no_targets                0                       # number of cycles access was blocked
system.l2.blocked::no_mshrs                         0                       # number of cycles access was blocked
system.l2.blocked::no_targets                       0                       # number of cycles access was blocked
system.l2.avg_blocked_cycles::no_mshrs            nan                       # average number of cycles each access was blocked
system.l2.avg_blocked_cycles::no_targets          nan                       # average number of cycles each access was blocked
system.l2.writebacks::.writebacks             1479319                       # number of writebacks
system.l2.writebacks::total                   1479319                       # number of writebacks
system.l2.demand_mshr_hits::.cpu.inst               1                       # number of demand (read+write) MSHR hits
system.l2.demand_mshr_hits::.cpu.data               3                       # number of demand (read+write) MSHR hits
system.l2.demand_mshr_hits::total                   4                       # number of demand (read+write) MSHR hits
system.l2.overall_mshr_hits::.cpu.inst              1                       # number of overall MSHR hits
system.l2.overall_mshr_hits::.cpu.data              3                       # number of overall MSHR hits
system.l2.overall_mshr_hits::total                  4                       # number of overall MSHR hits
system.l2.demand_mshr_misses::.cpu.inst           494                       # number of demand (read+write) MSHR misses
system.l2.demand_mshr_misses::.cpu.data       1487606                       # number of demand (read+write) MSHR misses
system.l2.demand_mshr_misses::total           1488100                       # number of demand (read+write) MSHR misses
system.l2.overall_mshr_misses::.cpu.inst          494                       # number of overall MSHR misses
system.l2.overall_mshr_misses::.cpu.data      1487606                       # number of overall MSHR misses
system.l2.overall_mshr_misses::total          1488100                       # number of overall MSHR misses
system.l2.demand_mshr_miss_latency::.cpu.inst     37908000                       # number of demand (read+write) MSHR miss cycles
system.l2.demand_mshr_miss_latency::.cpu.data 121716107000                       # number of demand (read+write) MSHR miss cycles
system.l2.demand_mshr_miss_latency::total 121754015000                       # number of demand (read+write) MSHR miss cycles
system.l2.overall_mshr_miss_latency::.cpu.inst     37908000                       # number of overall MSHR miss cycles
system.l2.overall_mshr_miss_latency::.cpu.data 121716107000                       # number of overall MSHR miss cycles
system.l2.overall_mshr_miss_latency::total 121754015000                       # number of overall MSHR miss cycles
system.l2.demand_mshr_miss_rate::.cpu.inst     0.843003                       # mshr miss rate for demand accesses
system.l2.demand_mshr_miss_rate::.cpu.data     0.973355                       # mshr miss rate for demand accesses
system.l2.demand_mshr_miss_rate::total       0.973305                       # mshr miss rate for demand accesses
system.l2.overall_mshr_miss_rate::.cpu.inst     0.843003                       # mshr miss rate for overall accesses
system.l2.overall_mshr_miss_rate::.cpu.data     0.973355                       # mshr miss rate for overall accesses
system.l2.overall_mshr_miss_rate::total      0.973305                       # mshr miss rate for overall accesses
system.l2.demand_avg_mshr_miss_latency::.cpu.inst 76736.842105                       # average overall mshr miss latency
system.l2.demand_avg_mshr_miss_latency::.cpu.data 81820.123742                       # average overall mshr miss latency
system.l2.demand_avg_mshr_miss_latency::total 81818.436261                       # average overall mshr miss latency
system.l2.overall_avg_mshr_miss_latency::.cpu.inst 76736.842105                       # average overall mshr miss latency
system.l2.overall_avg_mshr_miss_latency::.cpu.data 81820.123742                       # average overall mshr miss latency
system.l2.overall_avg_mshr_miss_latency::total 81818.436261                       # average overall mshr miss latency
system.l2.replacements                        1479908                       # number of replacements
system.l2.WritebackDirty_hits::.writebacks      1516070                       # number of WritebackDirty hits
system.l2.WritebackDirty_hits::total          1516070                       # number of WritebackDirty hits
system.l2.WritebackDirty_accesses::.writebacks      1516070                       # number of WritebackDirty accesses(hits+misses)
system.l2.WritebackDirty_accesses::total      1516070                       # number of WritebackDirty accesses(hits+misses)
system.l2.WritebackClean_hits::.writebacks          183                       # number of WritebackClean hits
system.l2.WritebackClean_hits::total              183                       # number of WritebackClean hits
system.l2.WritebackClean_accesses::.writebacks          183                       # number of WritebackClean accesses(hits+misses)
system.l2.WritebackClean_accesses::total          183                       # number of WritebackClean accesses(hits+misses)
system.l2.ReadExReq_hits::.cpu.data             17434                       # number of ReadExReq hits
system.l2.ReadExReq_hits::total                 17434                       # number of ReadExReq hits
system.l2.ReadExReq_misses::.cpu.data         1487491                       # number of ReadExReq misses
system.l2.ReadExReq_misses::total             1487491                       # number of ReadExReq misses
system.l2.ReadExReq_miss_latency::.cpu.data 151456490000                       # number of ReadExReq miss cycles
system.l2.ReadExReq_miss_latency::total  151456490000                       # number of ReadExReq miss cycles
system.l2.ReadExReq_accesses::.cpu.data       1504925                       # number of ReadExReq accesses(hits+misses)
system.l2.ReadExReq_accesses::total           1504925                       # number of ReadExReq accesses(hits+misses)
system.l2.ReadExReq_miss_rate::.cpu.data     0.988415                       # miss rate for ReadExReq accesses
system.l2.ReadExReq_miss_rate::total         0.988415                       # miss rate for ReadExReq accesses
system.l2.ReadExReq_avg_miss_latency::.cpu.data 101820.105130                       # average ReadExReq miss latency
system.l2.ReadExReq_avg_miss_latency::total 101820.105130                       # average ReadExReq miss latency
system.l2.ReadExReq_mshr_misses::.cpu.data      1487491                       # number of ReadExReq MSHR misses
system.l2.ReadExReq_mshr_misses::total        1487491                       # number of ReadExReq MSHR misses
system.l2.ReadExReq_mshr_miss_latency::.cpu.data 121706670000                       # number of ReadExReq MSHR miss cycles
system.l2.ReadExReq_mshr_miss_latency::total 121706670000                       # number of ReadExReq MSHR miss cycles
system.l2.ReadExReq_mshr_miss_rate::.cpu.data     0.988415                       # mshr miss rate for ReadExReq accesses
system.l2.ReadExReq_mshr_miss_rate::total     0.988415                       # mshr miss rate for ReadExReq accesses
system.l2.ReadExReq_avg_mshr_miss_latency::.cpu.data 81820.105130                       # average ReadExReq mshr miss latency
system.l2.ReadExReq_avg_mshr_miss_latency::total 81820.105130                       # average ReadExReq mshr miss latency
system.l2.ReadCleanReq_hits::.cpu.inst             91                       # number of ReadCleanReq hits
system.l2.ReadCleanReq_hits::total                 91                       # number of ReadCleanReq hits
system.l2.ReadCleanReq_misses::.cpu.inst          495                       # number of ReadCleanReq misses
system.l2.ReadCleanReq_misses::total              495                       # number of ReadCleanReq misses
system.l2.ReadCleanReq_miss_latency::.cpu.inst     47887000                       # number of ReadCleanReq miss cycles
system.l2.ReadCleanReq_miss_latency::total     47887000                       # number of ReadCleanReq miss cycles
system.l2.ReadCleanReq_accesses::.cpu.inst          586                       # number of ReadCleanReq accesses(hits+misses)
system.l2.ReadCleanReq_accesses::total            586                       # number of ReadCleanReq accesses(hits+misses)
system.l2.ReadCleanReq_miss_rate::.cpu.inst     0.844710                       # miss rate for ReadCleanReq accesses
system.l2.ReadCleanReq_miss_rate::total      0.844710                       # miss rate for ReadCleanReq accesses
system.l2.ReadCleanReq_avg_miss_latency::.cpu.inst 96741.414141                       # average ReadCleanReq miss latency
system.l2.ReadCleanReq_avg_miss_latency::total 96741.414141                       # average ReadCleanReq miss latency
system.l2.ReadCleanReq_mshr_hits::.cpu.inst            1                       # number of ReadCleanReq MSHR hits
system.l2.ReadCleanReq_mshr_hits::total             1                       # number of ReadCleanReq MSHR hits
system.l2.ReadCleanReq_mshr_misses::.cpu.inst          494                       # number of ReadCleanReq MSHR misses
system.l2.ReadCleanReq_mshr_misses::total          494                       # number of ReadCleanReq MSHR misses
system.l2.ReadCleanReq_mshr_miss_latency::.cpu.inst     37908000                       # number of ReadCleanReq MSHR miss cycles
system.l2.ReadCleanReq_mshr_miss_latency::total     37908000                       # number of ReadCleanReq MSHR miss cycles
system.l2.ReadCleanReq_mshr_miss_rate::.cpu.inst     0.843003                       # mshr miss rate for ReadCleanReq accesses
system.l2.ReadCleanReq_mshr_miss_rate::total     0.843003                       # mshr miss rate for ReadCleanReq accesses
system.l2.ReadCleanReq_avg_mshr_miss_latency::.cpu.inst 76736.842105                       # average ReadCleanReq mshr miss latency
system.l2.ReadCleanReq_avg_mshr_miss_latency::total 76736.842105                       # average ReadCleanReq mshr miss latency
system.l2.ReadSharedReq_hits::.cpu.data         23286                       # number of ReadSharedReq hits
system.l2.ReadSharedReq_hits::total             23286                       # number of ReadSharedReq hits
system.l2.ReadSharedReq_misses::.cpu.data          118                       # number of ReadSharedReq misses
system.l2.ReadSharedReq_misses::total             118                       # number of ReadSharedReq misses
system.l2.ReadSharedReq_miss_latency::.cpu.data     11993000                       # number of ReadSharedReq miss cycles
system.l2.ReadSharedReq_miss_latency::total     11993000                       # number of ReadSharedReq miss cycles
system.l2.ReadSharedReq_accesses::.cpu.data        23404                       # number of ReadSharedReq accesses(hits+misses)
system.l2.ReadSharedReq_accesses::total         23404                       # number of ReadSharedReq accesses(hits+misses)
system.l2.ReadSharedReq_miss_rate::.cpu.data     0.005042                       # miss rate for ReadSharedReq accesses
system.l2.ReadSharedReq_miss_rate::total     0.005042                       # miss rate for ReadSharedReq accesses
system.l2.ReadSharedReq_avg_miss_latency::.cpu.data 101635.593220                       # average ReadSharedReq miss latency
system.l2.ReadSharedReq_avg_miss_latency::total 101635.593220                       # average ReadSharedReq miss latency
system.l2.ReadSharedReq_mshr_hits::.cpu.data            3                       # number of ReadSharedReq MSHR hits
system.l2.ReadSharedReq_mshr_hits::total            3                       # number of ReadSharedReq MSHR hits
system.l2.ReadSharedReq_mshr_misses::.cpu.data          115                       # number of ReadSharedReq MSHR misses
system.l2.ReadSharedReq_mshr_misses::total          115                       # number of ReadSharedReq MSHR misses
system.l2.ReadSharedReq_mshr_miss_latency::.cpu.data      9437000                       # number of ReadSharedReq MSHR miss cycles
system.l2.ReadSharedReq_mshr_miss_latency::total      9437000                       # number of ReadSharedReq MSHR miss cycles
system.l2.ReadSharedReq_mshr_miss_rate::.cpu.data     0.004914                       # mshr miss rate for ReadSharedReq accesses
system.l2.ReadSharedReq_mshr_miss_rate::total     0.004914                       # mshr miss rate for ReadSharedReq accesses
system.l2.ReadSharedReq_avg_mshr_miss_latency::.cpu.data 82060.869565                       # average ReadSharedReq mshr miss latency
system.l2.ReadSharedReq_avg_mshr_miss_latency::total 82060.869565                       # average ReadSharedReq mshr miss latency
system.l2.power_state.pwrStateResidencyTicks::UNDEFINED 265063507000                       # Cumulative time (in ticks) in various power states
system.l2.tags.tagsinuse                  8170.534630                       # Cycle average of tags in use
system.l2.tags.total_refs                     3045266                       # Total number of references to valid blocks.
system.l2.tags.sampled_refs                   1488100                       # Sample count of references to valid blocks.
system.l2.tags.avg_refs                      2.046412                       # Average number of references to valid blocks.
system.l2.tags.warmup_cycle                     87000                       # Cycle when the warmup percentage was hit.
system.l2.tags.occ_blocks::.cpu.inst         3.055077                       # Average occupied blocks per requestor
system.l2.tags.occ_blocks::.cpu.data      8167.479553                       # Average occupied blocks per requestor
system.l2.tags.occ_percent::.cpu.inst        0.000373                       # Average percentage of cache occupancy
system.l2.tags.occ_percent::.cpu.data        0.997007                       # Average percentage of cache occupancy
system.l2.tags.occ_percent::total            0.997380                       # Average percentage of cache occupancy
system.l2.tags.occ_task_id_blocks::1024          8192                       # Occupied blocks per task id
system.l2.tags.age_task_id_blocks_1024::0           57                       # Occupied blocks per task id
system.l2.tags.age_task_id_blocks_1024::1          505                       # Occupied blocks per task id
system.l2.tags.age_task_id_blocks_1024::2         5055                       # Occupied blocks per task id
system.l2.tags.age_task_id_blocks_1024::3         2573                       # Occupied blocks per task id
system.l2.tags.age_task_id_blocks_1024::4            2                       # Occupied blocks per task id
system.l2.tags.occ_task_id_percent::1024            1                       # Percentage of cache occupancy per task id
system.l2.tags.tag_accesses                   7578640                       # Number of tag accesses
system.l2.tags.data_accesses                  7578640                       # Number of data accesses
system.l2.tags.power_state.pwrStateResidencyTicks::UNDEFINED 265063507000                       # Cumulative time (in ticks) in various power states
system.mem_ctrls.avgPriority_.writebacks::samples   1479319.00                       # Average QoS priority value for accepted requests
system.mem_ctrls.avgPriority_.cpu.inst::samples       494.00                       # Average QoS priority value for accepted requests
system.mem_ctrls.avgPriority_.cpu.data::samples   1487606.00                       # Average QoS priority value for accepted requests
system.mem_ctrls.priorityMinLatency      0.000000018750                       # per QoS priority minimum request to response latency (s)
system.mem_ctrls.priorityMaxLatency      0.001384031250                       # per QoS priority maximum request to response latency (s)
system.mem_ctrls.numReadWriteTurnArounds        82391                       # Number of turnarounds from READ to WRITE
system.mem_ctrls.numWriteReadTurnArounds        82392                       # Number of turnarounds from WRITE to READ
system.mem_ctrls.numStayReadState             4456346                       # Number of times bus staying in READ state
system.mem_ctrls.numStayWriteState            1403752                       # Number of times bus staying in WRITE state
system.mem_ctrls.readReqs                     1488100                       # Number of read requests accepted
system.mem_ctrls.writeReqs                    1479319                       # Number of write requests accepted
system.mem_ctrls.readBursts                   1488100                       # Number of controller read bursts, including those serviced by the write queue
system.mem_ctrls.writeBursts                  1479319                       # Number of controller write bursts, including those merged in the write queue
system.mem_ctrls.servicedByWrQ                      0                       # Number of controller read bursts serviced by the write queue
system.mem_ctrls.mergedWrBursts                     0                       # Number of controller write bursts merged with an existing one
system.mem_ctrls.neitherReadNorWriteReqs            0                       # Number of requests that are neither read nor write
system.mem_ctrls.avgRdQLen                       1.00                       # Average read queue length when enqueuing
system.mem_ctrls.avgWrQLen                      24.73                       # Average write queue length when enqueuing
system.mem_ctrls.numRdRetry                         0                       # Number of times read queue was full causing retry
system.mem_ctrls.numWrRetry                         0                       # Number of times write queue was full causing retry
system.mem_ctrls.readPktSize::0                     0                       # Read request sizes (log2)
system.mem_ctrls.readPktSize::1                     0                       # Read request sizes (log2)
system.mem_ctrls.readPktSize::2                     0                       # Read request sizes (log2)
system.mem_ctrls.readPktSize::3                     0                       # Read request sizes (log2)
system.mem_ctrls.readPktSize::4                     0                       # Read request sizes (log2)
system.mem_ctrls.readPktSize::5                     0                       # Read request sizes (log2)
system.mem_ctrls.readPktSize::6               1488100                       # Read request sizes (log2)
system.mem_ctrls.writePktSize::0                    0                       # Write request sizes (log2)
system.mem_ctrls.writePktSize::1                    0                       # Write request sizes (log2)
[...]
system.mem_ctrls.dram.bw_write::.writebacks    357183896                       # Write bandwidth from this memory (bytes/s)
system.mem_ctrls.dram.bw_write::total       357183896                       # Write bandwidth from this memory (bytes/s)
system.mem_ctrls.dram.bw_total::.writebacks    357183896                       # Total bandwidth to/from this memory (bytes/s)
system.mem_ctrls.dram.bw_total::.cpu.inst       119277                       # Total bandwidth to/from this memory (bytes/s)
system.mem_ctrls.dram.bw_total::.cpu.data    359184805                       # Total bandwidth to/from this memory (bytes/s)
system.mem_ctrls.dram.bw_total::total       716487977                       # Total bandwidth to/from this memory (bytes/s)
system.mem_ctrls.dram.readBursts              1488100                       # Number of DRAM read bursts
system.mem_ctrls.dram.writeBursts             1479291                       # Number of DRAM write bursts
system.mem_ctrls.dram.perBankRdBursts::0        93066                       # Per bank write bursts
system.mem_ctrls.dram.perBankRdBursts::1        92961                       # Per bank write bursts
system.mem_ctrls.dram.perBankRdBursts::2        92992                       # Per bank write bursts
system.mem_ctrls.dram.perBankRdBursts::3        92938                       # Per bank write bursts
system.mem_ctrls.dram.perBankRdBursts::4        93037                       # Per bank write bursts
system.mem_ctrls.dram.perBankRdBursts::5        93074                       # Per bank write bursts
system.mem_ctrls.dram.perBankRdBursts::6        93061                       # Per bank write bursts
system.mem_ctrls.dram.perBankRdBursts::7        93078                       # Per bank write bursts
system.mem_ctrls.dram.perBankRdBursts::8        93148                       # Per bank write bursts
system.mem_ctrls.dram.perBankRdBursts::9        92944                       # Per bank write bursts
system.mem_ctrls.dram.perBankRdBursts::10        92955                       # Per bank write bursts
system.mem_ctrls.dram.perBankRdBursts::11        92953                       # Per bank write bursts
system.mem_ctrls.dram.perBankRdBursts::12        92999                       # Per bank write bursts
system.mem_ctrls.dram.perBankRdBursts::13        92952                       # Per bank write bursts
system.mem_ctrls.dram.perBankRdBursts::14        92956                       # Per bank write bursts
system.mem_ctrls.dram.perBankRdBursts::15        92986                       # Per bank write bursts
system.mem_ctrls.dram.perBankWrBursts::0        92461                       # Per bank write bursts
system.mem_ctrls.dram.perBankWrBursts::1        92440                       # Per bank write bursts
system.mem_ctrls.dram.perBankWrBursts::2        92431                       # Per bank write bursts
system.mem_ctrls.dram.perBankWrBursts::3        92423                       # Per bank write bursts
system.mem_ctrls.dram.perBankWrBursts::4        92481                       # Per bank write bursts
system.mem_ctrls.dram.perBankWrBursts::5        92544                       # Per bank write bursts
system.mem_ctrls.dram.perBankWrBursts::6        92544                       # Per bank write bursts
system.mem_ctrls.dram.perBankWrBursts::7        92544                       # Per bank write bursts
system.mem_ctrls.dram.perBankWrBursts::8        92508                       # Per bank write bursts
system.mem_ctrls.dram.perBankWrBursts::9        92416                       # Per bank write bursts
system.mem_ctrls.dram.perBankWrBursts::10        92416                       # Per bank write bursts
system.mem_ctrls.dram.perBankWrBursts::11        92416                       # Per bank write bursts
system.mem_ctrls.dram.perBankWrBursts::12        92416                       # Per bank write bursts
system.mem_ctrls.dram.perBankWrBursts::13        92416                       # Per bank write bursts
system.mem_ctrls.dram.perBankWrBursts::14        92416                       # Per bank write bursts
system.mem_ctrls.dram.perBankWrBursts::15        92419                       # Per bank write bursts
system.mem_ctrls.dram.totQLat             17566842250                       # Total ticks spent queuing
system.mem_ctrls.dram.totBusLat            7440500000                       # Total ticks spent in databus transfers
system.mem_ctrls.dram.totMemAccLat        45468717250                       # Total ticks spent from burst creation until serviced by the DRAM
system.mem_ctrls.dram.avgQLat                11804.88                       # Average queueing delay per DRAM burst
system.mem_ctrls.dram.avgBusLat               5000.00                       # Average bus latency per DRAM burst
system.mem_ctrls.dram.avgMemAccLat           30554.88                       # Average memory access latency per DRAM burst
system.mem_ctrls.dram.readRowHits             1314935                       # Number of row buffer hits during reads
system.mem_ctrls.dram.writeRowHits            1313298                       # Number of row buffer hits during writes
system.mem_ctrls.dram.readRowHitRate            88.36                       # Row buffer hit rate for reads
system.mem_ctrls.dram.writeRowHitRate           88.78                       # Row buffer hit rate for writes
system.mem_ctrls.dram.bytesPerActivate::samples       339157                       # Bytes accessed per row activation
system.mem_ctrls.dram.bytesPerActivate::mean   559.955136                       # Bytes accessed per row activation
system.mem_ctrls.dram.bytesPerActivate::gmean   371.317595                       # Bytes accessed per row activation
system.mem_ctrls.dram.bytesPerActivate::stdev   410.661100                       # Bytes accessed per row activation
system.mem_ctrls.dram.bytesPerActivate::0-127        16404      4.84%      4.84% # Bytes accessed per row activation
system.mem_ctrls.dram.bytesPerActivate::128-255       122969     36.26%     41.09% # Bytes accessed per row activation
system.mem_ctrls.dram.bytesPerActivate::256-383        12950      3.82%     44.91% # Bytes accessed per row activation
system.mem_ctrls.dram.bytesPerActivate::384-511        12633      3.72%     48.64% # Bytes accessed per row activation
system.mem_ctrls.dram.bytesPerActivate::512-639        14828      4.37%     53.01% # Bytes accessed per row activation
system.mem_ctrls.dram.bytesPerActivate::640-767        11728      3.46%     56.47% # Bytes accessed per row activation
system.mem_ctrls.dram.bytesPerActivate::768-895        10629      3.13%     59.60% # Bytes accessed per row activation
system.mem_ctrls.dram.bytesPerActivate::896-1023        11664      3.44%     63.04% # Bytes accessed per row activation
system.mem_ctrls.dram.bytesPerActivate::1024-1151       125352     36.96%    100.00% # Bytes accessed per row activation
system.mem_ctrls.dram.bytesPerActivate::total       339157                       # Bytes accessed per row activation
system.mem_ctrls.dram.bytesRead              95238400                       # Total number of bytes read from DRAM
system.mem_ctrls.dram.bytesWritten           94674624                       # Total number of bytes written to DRAM
system.mem_ctrls.dram.avgRdBW              359.304082                       # Average DRAM read bandwidth in MiBytes/s
system.mem_ctrls.dram.avgWrBW              357.177135                       # Average DRAM write bandwidth in MiBytes/s
system.mem_ctrls.dram.peakBW                 12800.00                       # Theoretical peak bandwidth in MiByte/s
system.mem_ctrls.dram.busUtil                    5.60                       # Data bus utilization in percentage
system.mem_ctrls.dram.busUtilRead                2.81                       # Data bus utilization in percentage for reads
system.mem_ctrls.dram.busUtilWrite               2.79                       # Data bus utilization in percentage for writes
system.mem_ctrls.dram.pageHitRate               88.57                       # Row buffer hit rate, read and write combined
system.mem_ctrls.dram.power_state.pwrStateResidencyTicks::UNDEFINED 265063507000                       # Cumulative time (in ticks) in various power states
system.mem_ctrls.dram.rank0.actEnergy      1214164140                       # Energy for activate commands per rank (pJ)
system.mem_ctrls.dram.rank0.preEnergy       645343545                       # Energy for precharge commands per rank (pJ)
system.mem_ctrls.dram.rank0.readEnergy     5313637980                       # Energy for read commands per rank (pJ)
system.mem_ctrls.dram.rank0.writeEnergy    3862110960                       # Energy for write commands per rank (pJ)
system.mem_ctrls.dram.rank0.refreshEnergy 20923574880.000004                       # Energy for refresh commands per rank (pJ)
system.mem_ctrls.dram.rank0.actBackEnergy  61959045600                       # Energy for active background per rank (pJ)
system.mem_ctrls.dram.rank0.preBackEnergy  49608348480                       # Energy for precharge background per rank (pJ)
system.mem_ctrls.dram.rank0.actPowerDownEnergy            0                       # Energy for active power-down per rank (pJ)
system.mem_ctrls.dram.rank0.prePowerDownEnergy            0                       # Energy for precharge power-down per rank (pJ)
system.mem_ctrls.dram.rank0.selfRefreshEnergy            0                       # Energy for self refresh per rank (pJ)
system.mem_ctrls.dram.rank0.totalEnergy  143526225585                       # Total energy per rank (pJ)
system.mem_ctrls.dram.rank0.averagePower   541.478634                       # Core power per rank (mW)
system.mem_ctrls.dram.rank0.totalIdleTime            0                       # Total Idle time Per DRAM Rank
system.mem_ctrls.dram.rank0.pwrStateTime::IDLE 126990520000                       # Time in different power states
system.mem_ctrls.dram.rank0.pwrStateTime::REF   8850920000                       # Time in different power states
system.mem_ctrls.dram.rank0.pwrStateTime::SREF            0                       # Time in different power states
system.mem_ctrls.dram.rank0.pwrStateTime::PRE_PDN            0                       # Time in different power states
system.mem_ctrls.dram.rank0.pwrStateTime::ACT 129222067000                       # Time in different power states
system.mem_ctrls.dram.rank0.pwrStateTime::ACT_PDN            0                       # Time in different power states
system.mem_ctrls.dram.rank1.actEnergy      1207423980                       # Energy for activate commands per rank (pJ)
system.mem_ctrls.dram.rank1.preEnergy       641757270                       # Energy for precharge commands per rank (pJ)
system.mem_ctrls.dram.rank1.readEnergy     5311396020                       # Energy for read commands per rank (pJ)
system.mem_ctrls.dram.rank1.writeEnergy    3859761960                       # Energy for write commands per rank (pJ)
system.mem_ctrls.dram.rank1.refreshEnergy 20923574880.000004                       # Energy for refresh commands per rank (pJ)
system.mem_ctrls.dram.rank1.actBackEnergy  61725934410                       # Energy for active background per rank (pJ)
system.mem_ctrls.dram.rank1.preBackEnergy  49804652640                       # Energy for precharge background per rank (pJ)
system.mem_ctrls.dram.rank1.actPowerDownEnergy            0                       # Energy for active power-down per rank (pJ)
system.mem_ctrls.dram.rank1.prePowerDownEnergy            0                       # Energy for precharge power-down per rank (pJ)
system.mem_ctrls.dram.rank1.selfRefreshEnergy            0                       # Energy for self refresh per rank (pJ)
system.mem_ctrls.dram.rank1.totalEnergy  143474501160                       # Total energy per rank (pJ)
system.mem_ctrls.dram.rank1.averagePower   541.283494                       # Core power per rank (mW)
system.mem_ctrls.dram.rank1.totalIdleTime            0                       # Total Idle time Per DRAM Rank
system.mem_ctrls.dram.rank1.pwrStateTime::IDLE 127518866500                       # Time in different power states
system.mem_ctrls.dram.rank1.pwrStateTime::REF   8850920000                       # Time in different power states
system.mem_ctrls.dram.rank1.pwrStateTime::SREF            0                       # Time in different power states
system.mem_ctrls.dram.rank1.pwrStateTime::PRE_PDN            0                       # Time in different power states
system.mem_ctrls.dram.rank1.pwrStateTime::ACT 128693720500                       # Time in different power states
system.mem_ctrls.dram.rank1.pwrStateTime::ACT_PDN            0                       # Time in different power states
system.mem_ctrls.power_state.pwrStateResidencyTicks::UNDEFINED 265063507000                       # Cumulative time (in ticks) in various power states
system.membus.trans_dist::ReadResp                609                       # Transaction distribution
system.membus.trans_dist::WritebackDirty      1479319                       # Transaction distribution
system.membus.trans_dist::CleanEvict              196                       # Transaction distribution
system.membus.trans_dist::ReadExReq           1487491                       # Transaction distribution
system.membus.trans_dist::ReadExResp          1487491                       # Transaction distribution
system.membus.trans_dist::ReadSharedReq           609                       # Transaction distribution
system.membus.pkt_count_system.l2.mem_side_port::system.mem_ctrls.port      4455715                       # Packet count per connected requestor and responder (bytes)
system.membus.pkt_count::total                4455715                       # Packet count per connected requestor and responder (bytes)
system.membus.pkt_size_system.l2.mem_side_port::system.mem_ctrls.port    189914816                       # Cumulative packet size per connected requestor and responder (bytes)
system.membus.pkt_size::total               189914816                       # Cumulative packet size per connected requestor and responder (bytes)
system.membus.snoops                                0                       # Total snoops (count)
system.membus.snoopTraffic                          0                       # Total snoop traffic (bytes)
system.membus.snoop_fanout::samples           1488100                       # Request fanout histogram
system.membus.snoop_fanout::mean                    0                       # Request fanout histogram
system.membus.snoop_fanout::stdev                   0                       # Request fanout histogram
system.membus.snoop_fanout::underflows              0      0.00%      0.00% # Request fanout histogram
system.membus.snoop_fanout::0                 1488100    100.00%    100.00% # Request fanout histogram
system.membus.snoop_fanout::1                       0      0.00%    100.00% # Request fanout histogram
system.membus.snoop_fanout::overflows               0      0.00%    100.00% # Request fanout histogram
system.membus.snoop_fanout::min_value               0                       # Request fanout histogram
system.membus.snoop_fanout::max_value               0                       # Request fanout histogram
system.membus.snoop_fanout::total             1488100                       # Request fanout histogram
system.membus.power_state.pwrStateResidencyTicks::UNDEFINED 265063507000                       # Cumulative time (in ticks) in various power states
system.membus.reqLayer0.occupancy          8884891000                       # Layer occupancy (ticks)
system.membus.reqLayer0.utilization               3.4                       # Layer utilization (%)
system.membus.respLayer1.occupancy         7832685750                       # Layer occupancy (ticks)
system.membus.respLayer1.utilization              3.0                       # Layer utilization (%)
system.tol2bus.trans_dist::ReadResp             23990                       # Transaction distribution
system.tol2bus.trans_dist::WritebackDirty      2995389                       # Transaction distribution
system.tol2bus.trans_dist::WritebackClean          192                       # Transaction distribution
system.tol2bus.trans_dist::CleanEvict           12336                       # Transaction distribution
system.tol2bus.trans_dist::ReadExReq          1504925                       # Transaction distribution
system.tol2bus.trans_dist::ReadExResp         1504925                       # Transaction distribution
system.tol2bus.trans_dist::ReadCleanReq           586                       # Transaction distribution
system.tol2bus.trans_dist::ReadSharedReq        23404                       # Transaction distribution
system.tol2bus.pkt_count_system.cpu.icache.mem_side_port::system.l2.cpu_side_port         1364                       # Packet count per connected requestor and responder (bytes)
system.tol2bus.pkt_count_system.cpu.dcache.mem_side_port::system.l2.cpu_side_port      4584475                       # Packet count per connected requestor and responder (bytes)
system.tol2bus.pkt_count::total               4585839                       # Packet count per connected requestor and responder (bytes)
system.tol2bus.pkt_size_system.cpu.icache.mem_side_port::system.l2.cpu_side_port        49792                       # Cumulative packet size per connected requestor and responder (bytes)
system.tol2bus.pkt_size_system.cpu.dcache.mem_side_port::system.l2.cpu_side_port    194841536                       # Cumulative packet size per connected requestor and responder (bytes)
system.tol2bus.pkt_size::total              194891328                       # Cumulative packet size per connected requestor and responder (bytes)
system.tol2bus.snoops                         1479908                       # Total snoops (count)
system.tol2bus.snoopTraffic                  94676416                       # Total snoop traffic (bytes)
system.tol2bus.snoop_fanout::samples          3008823                       # Request fanout histogram
system.tol2bus.snoop_fanout::mean            0.004004                       # Request fanout histogram
system.tol2bus.snoop_fanout::stdev           0.063152                       # Request fanout histogram
system.tol2bus.snoop_fanout::underflows             0      0.00%      0.00% # Request fanout histogram
system.tol2bus.snoop_fanout::0                2996775     99.60%     99.60% # Request fanout histogram
system.tol2bus.snoop_fanout::1                  12048      0.40%    100.00% # Request fanout histogram
system.tol2bus.snoop_fanout::2                      0      0.00%    100.00% # Request fanout histogram
system.tol2bus.snoop_fanout::overflows              0      0.00%    100.00% # Request fanout histogram
system.tol2bus.snoop_fanout::min_value              0                       # Request fanout histogram
system.tol2bus.snoop_fanout::max_value              1                       # Request fanout histogram
system.tol2bus.snoop_fanout::total            3008823                       # Request fanout histogram
system.tol2bus.power_state.pwrStateResidencyTicks::UNDEFINED 265063507000                       # Cumulative time (in ticks) in various power states
system.tol2bus.reqLayer0.occupancy         6089448000                       # Layer occupancy (ticks)
system.tol2bus.reqLayer0.utilization              2.3                       # Layer utilization (%)
system.tol2bus.respLayer0.occupancy           1758999                       # Layer occupancy (ticks)
system.tol2bus.respLayer0.utilization             0.0                       # Layer utilization (%)
system.tol2bus.respLayer1.occupancy        4584989997                       # Layer occupancy (ticks)
system.tol2bus.respLayer1.utilization             1.7                       # Layer utilization (%)
system.voltage_domain.voltage                       1                       # Voltage in Volts

---------- End Simulation Statistics   ----------
