
---------- Begin Simulation Statistics ----------
final_tick                               707645249000                       # Number of ticks from beginning of simulation (restored from checkpoints and never reset)
host_inst_rate                                 208375                       # Simulator instruction rate (inst/s)
host_mem_usage                                 663332                       # Number of bytes of host memory used
host_op_rate                                   383865                       # Simulator op (including micro ops) rate (op/s)
host_seconds                                   479.90                       # Real time elapsed on the host
host_tick_rate                             1474554066                       # Simulator tick rate (ticks/s)
sim_freq                                 1000000000000                       # Frequency of simulated ticks
sim_insts                                   100000000                       # Number of instructions simulated
sim_ops                                     184218644                       # Number of ops (including micro ops) simulated
sim_seconds                                  0.707645                       # Number of seconds simulated
sim_ticks                                707645249000                       # Number of ticks simulated
system.cpu.committedInsts                   100000000                       # Number of instructions committed
system.cpu.committedOps                     184218644                       # Number of ops (including micro ops) committed
system.cpu.cpi                               7.076452                       # CPI: cycles per instruction
system.cpu.discardedOps                          4287                       # Number of ops (including micro ops) which were discarded before commit
system.cpu.idleCycles                       485847619                       # Total number of cycles that the object has spent stopped
system.cpu.ipc                               0.141314                       # IPC: instructions per cycle
system.cpu.numCycles                        707645249                       # number of cpu cycles simulated
system.cpu.numFetchSuspends                         0                       # Number of times Execute suspended instruction fetching
system.cpu.numWorkItemsCompleted                    0                       # number of work items this cpu completed
system.cpu.numWorkItemsStarted                      0                       # number of work items this cpu started
system.cpu.op_class_0::No_OpClass                   0      0.00%      0.00% # Class of committed instruction
system.cpu.op_class_0::IntAlu                97640476     53.00%     53.00% # Class of committed instruction
system.cpu.op_class_0::IntMult                 114699      0.06%     53.06% # Class of committed instruction
system.cpu.op_class_0::IntDiv                       0      0.00%     53.06% # Class of committed instruction
system.cpu.op_class_0::FloatAdd                     0      0.00%     53.06% # Class of committed instruction
system.cpu.op_class_0::FloatCmp                     0      0.00%     53.06% # Class of committed instruction
system.cpu.op_class_0::FloatCvt                     0      0.00%     53.06% # Class of committed instruction
system.cpu.op_class_0::FloatMult                    0      0.00%     53.06% # Class of committed instruction
system.cpu.op_class_0::FloatMultAcc                 0      0.00%     53.06% # Class of committed instruction
system.cpu.op_class_0::FloatDiv                     0      0.00%     53.06% # Class of committed instruction
system.cpu.op_class_0::FloatMisc                    0      0.00%     53.06% # Class of committed instruction
system.cpu.op_class_0::FloatSqrt                    0      0.00%     53.06% # Class of committed instruction
system.cpu.op_class_0::SimdAdd                      8      0.00%     53.06% # Class of committed instruction
system.cpu.op_class_0::SimdAddAcc                   0      0.00%     53.06% # Class of committed instruction
system.cpu.op_class_0::SimdAlu                      8      0.00%     53.06% # Class of committed instruction
system.cpu.op_class_0::SimdCmp                      6      0.00%     53.06% # Class of committed instruction
system.cpu.op_class_0::SimdCvt                      0      0.00%     53.06% # Class of committed instruction
system.cpu.op_class_0::SimdMisc                     1      0.00%     53.06% # Class of committed instruction
system.cpu.op_class_0::SimdMult                     0      0.00%     53.06% # Class of committed instruction
system.cpu.op_class_0::SimdMultAcc                  0      0.00%     53.06% # Class of committed instruction
system.cpu.op_class_0::SimdShift                    0      0.00%     53.06% # Class of committed instruction
system.cpu.op_class_0::SimdShiftAcc                 0      0.00%     53.06% # Class of committed instruction
system.cpu.op_class_0::SimdDiv                      0      0.00%     53.06% # Class of committed instruction
system.cpu.op_class_0::SimdSqrt                     0      0.00%     53.06% # Class of committed instruction
system.cpu.op_class_0::SimdFloatAdd                 0      0.00%     53.06% # Class of committed instruction
system.cpu.op_class_0::SimdFloatAlu                 0      0.00%     53.06% # Class of committed instruction
system.cpu.op_class_0::SimdFloatCmp                 0      0.00%     53.06% # Class of committed instruction
system.cpu.op_class_0::SimdFloatCvt                 0      0.00%     53.06% # Class of committed instruction
system.cpu.op_class_0::SimdFloatDiv                 0      0.00%     53.06% # Class of committed instruction
system.cpu.op_class_0::SimdFloatMisc               23      0.00%     53.06% # Class of committed instruction
system.cpu.op_class_0::SimdFloatMult                0      0.00%     53.06% # Class of committed instruction
system.cpu.op_class_0::SimdFloatMultAcc             0      0.00%     53.06% # Class of committed instruction
system.cpu.op_class_0::SimdFloatSqrt                0      0.00%     53.06% # Class of committed instruction
system.cpu.op_class_0::SimdReduceAdd                0      0.00%     53.06% # Class of committed instruction
system.cpu.op_class_0::SimdReduceAlu                0      0.00%     53.06% # Class of committed instruction
system.cpu.op_class_0::SimdReduceCmp                0      0.00%     53.06% # Class of committed instruction
system.cpu.op_class_0::SimdFloatReduceAdd            0      0.00%     53.06% # Class of committed instruction
system.cpu.op_class_0::SimdFloatReduceCmp            0      0.00%     53.06% # Class of committed instruction
system.cpu.op_class_0::SimdAes                      0      0.00%     53.06% # Class of committed instruction
system.cpu.op_class_0::SimdAesMix                   0      0.00%     53.06% # Class of committed instruction
system.cpu.op_class_0::SimdSha1Hash                 0      0.00%     53.06% # Class of committed instruction
system.cpu.op_class_0::SimdSha1Hash2                0      0.00%     53.06% # Class of committed instruction
system.cpu.op_class_0::SimdSha256Hash               0      0.00%     53.06% # Class of committed instruction
system.cpu.op_class_0::SimdSha256Hash2              0      0.00%     53.06% # Class of committed instruction
system.cpu.op_class_0::SimdShaSigma2                0      0.00%     53.06% # Class of committed instruction
system.cpu.op_class_0::SimdShaSigma3                0      0.00%     53.06% # Class of committed instruction
system.cpu.op_class_0::SimdPredAlu                  0      0.00%     53.06% # Class of committed instruction
system.cpu.op_class_0::MemRead                2082689      1.13%     54.20% # Class of committed instruction
system.cpu.op_class_0::MemWrite              84380734     45.80%    100.00% # Class of committed instruction
system.cpu.op_class_0::FloatMemRead                 0      0.00%    100.00% # Class of committed instruction
system.cpu.op_class_0::FloatMemWrite                0      0.00%    100.00% # Class of committed instruction
system.cpu.op_class_0::IprAccess                    0      0.00%    100.00% # Class of committed instruction
system.cpu.op_class_0::InstPrefetch                 0      0.00%    100.00% # Class of committed instruction
system.cpu.op_class_0::total                184218644                       # Class of committed instruction
system.cpu.tickCycles                       221797630                       # Number of cycles that the object actually ticked
system.cpu.workload.numSyscalls                    18                       # Number of system calls
system.membus.snoop_filter.hit_multi_requests            0                       # Number of requests hitting in the snoop filter with multiple (>1) holders of the requested data.
system.membus.snoop_filter.hit_multi_snoops            0                       # Number of snoops hitting in the snoop filter with multiple (>1) holders of the requested data.
system.membus.snoop_filter.hit_single_requests      5255474                       # Number of requests hitting in the snoop filter with a single holder of the requested data.
system.membus.snoop_filter.hit_single_snoops            0                       # Number of snoops hitting in the snoop filter with a single holder of the requested data.
system.membus.snoop_filter.tot_requests      10519373                       # Total number of requests made to the snoop filter.
system.membus.snoop_filter.tot_snoops               0                       # Total number of snoops made to the snoop filter.
system.tol2bus.snoop_filter.hit_multi_requests          268                       # Number of requests hitting in the snoop filter with multiple (>1) holders of the requested data.
system.tol2bus.snoop_filter.hit_multi_snoops            0                       # Number of snoops hitting in the snoop filter with multiple (>1) holders of the requested data.
system.tol2bus.snoop_filter.hit_single_requests      5315575                       # Number of requests hitting in the snoop filter with a single holder of the requested data.
system.tol2bus.snoop_filter.hit_single_snoops          374                       # Number of snoops hitting in the snoop filter with a single holder of the requested data.
system.tol2bus.snoop_filter.tot_requests     10632417                       # Total number of requests made to the snoop filter.
system.tol2bus.snoop_filter.tot_snoops            374                       # Total number of snoops made to the snoop filter.
system.clk_domain.clock                          1000                       # Clock period in ticks
system.cpu.branchPred.lookups                10658091                       # Number of BP lookups
system.cpu.branchPred.condPredicted          10649890                       # Number of conditional branches predicted
system.cpu.branchPred.condIncorrect              1440                       # Number of conditional branches incorrect
system.cpu.branchPred.BTBLookups             10650157                       # Number of BTB lookups
system.cpu.branchPred.BTBHits                10648832                       # Number of BTB hits
system.cpu.branchPred.BTBHitPct             99.987559                       # BTB Hit Percentage
system.cpu.branchPred.RASUsed                    2698                       # Number of times the RAS was used to get a target.
system.cpu.branchPred.RASIncorrect                  0                       # Number of incorrect RAS predictions.
system.cpu.branchPred.indirectLookups             192                       # Number of indirect predictor lookups.
system.cpu.branchPred.indirectHits                 24                       # Number of indirect target hits.
system.cpu.branchPred.indirectMisses              168                       # Number of indirect misses.
system.cpu.branchPred.indirectMispredicted          103                       # Number of mispredicted indirect branches.
system.cpu.dcache.demand_hits::.cpu.data     75808075                       # number of demand (read+write) hits
system.cpu.dcache.demand_hits::total         75808075                       # number of demand (read+write) hits
system.cpu.dcache.overall_hits::.cpu.data     75808109                       # number of overall hits
system.cpu.dcache.overall_hits::total        75808109                       # number of overall hits
system.cpu.dcache.demand_misses::.cpu.data     10572366                       # number of demand (read+write) misses
system.cpu.dcache.demand_misses::total       10572366                       # number of demand (read+write) misses
system.cpu.dcache.overall_misses::.cpu.data     10572403                       # number of overall misses
system.cpu.dcache.overall_misses::total      10572403                       # number of overall misses
system.cpu.dcache.demand_miss_latency::.cpu.data 1111424368998                       # number of demand (read+write) miss cycles
system.cpu.dcache.demand_miss_latency::total 1111424368998                       # number of demand (read+write) miss cycles
system.cpu.dcache.overall_miss_latency::.cpu.data 1111424368998                       # number of overall miss cycles
system.cpu.dcache.overall_miss_latency::total 1111424368998                       # number of overall miss cycles
system.cpu.dcache.demand_accesses::.cpu.data     86380441                       # number of demand (read+write) accesses
system.cpu.dcache.demand_accesses::total     86380441                       # number of demand (read+write) accesses
system.cpu.dcache.overall_accesses::.cpu.data     86380512                       # number of overall (read+write) accesses
system.cpu.dcache.overall_accesses::total     86380512                       # number of overall (read+write) accesses
system.cpu.dcache.demand_miss_rate::.cpu.data     0.122393                       # miss rate for demand accesses
system.cpu.dcache.demand_miss_rate::total     0.122393                       # miss rate for demand accesses
system.cpu.dcache.overall_miss_rate::.cpu.data     0.122393                       # miss rate for overall accesses
system.cpu.dcache.overall_miss_rate::total     0.122393                       # miss rate for overall accesses
system.cpu.dcache.demand_avg_miss_latency::.cpu.data 105125.415541                       # average overall miss latency
system.cpu.dcache.demand_avg_miss_latency::total 105125.415541                       # average overall miss latency
system.cpu.dcache.overall_avg_miss_latency::.cpu.data 105125.047636                       # average overall miss latency
system.cpu.dcache.overall_avg_miss_latency::total 105125.047636                       # average overall miss latency
system.cpu.dcache.blocked_cycles::no_mshrs          143                       # number of cycles access was blocked
system.cpu.dcache.blocked_cycles::no_targets            0                       # number of cycles access was blocked
system.cpu.dcache.blocked::no_mshrs                 4                       # number of cycles access was blocked
system.cpu.dcache.blocked::no_targets               0                       # number of cycles access was blocked
system.cpu.dcache.avg_blocked_cycles::no_mshrs    35.750000                       # average number of cycles each access was blocked
system.cpu.dcache.avg_blocked_cycles::no_targets          nan                       # average number of cycles each access was blocked
system.cpu.dcache.writebacks::.writebacks      5286554                       # number of writebacks
system.cpu.dcache.writebacks::total           5286554                       # number of writebacks
system.cpu.dcache.demand_mshr_hits::.cpu.data      5260397                       # number of demand (read+write) MSHR hits
system.cpu.dcache.demand_mshr_hits::total      5260397                       # number of demand (read+write) MSHR hits
system.cpu.dcache.overall_mshr_hits::.cpu.data      5260397                       # number of overall MSHR hits
system.cpu.dcache.overall_mshr_hits::total      5260397                       # number of overall MSHR hits
system.cpu.dcache.demand_mshr_misses::.cpu.data      5311969                       # number of demand (read+write) MSHR misses
system.cpu.dcache.demand_mshr_misses::total      5311969                       # number of demand (read+write) MSHR misses
system.cpu.dcache.overall_mshr_misses::.cpu.data      5312002                       # number of overall MSHR misses
system.cpu.dcache.overall_mshr_misses::total      5312002                       # number of overall MSHR misses
system.cpu.dcache.demand_mshr_miss_latency::.cpu.data 543658098000                       # number of demand (read+write) MSHR miss cycles
system.cpu.dcache.demand_mshr_miss_latency::total 543658098000                       # number of demand (read+write) MSHR miss cycles
system.cpu.dcache.overall_mshr_miss_latency::.cpu.data 543661417000                       # number of overall MSHR miss cycles
system.cpu.dcache.overall_mshr_miss_latency::total 543661417000                       # number of overall MSHR miss cycles
system.cpu.dcache.demand_mshr_miss_rate::.cpu.data     0.061495                       # mshr miss rate for demand accesses
system.cpu.dcache.demand_mshr_miss_rate::total     0.061495                       # mshr miss rate for demand accesses
system.cpu.dcache.overall_mshr_miss_rate::.cpu.data     0.061495                       # mshr miss rate for overall accesses
system.cpu.dcache.overall_mshr_miss_rate::total     0.061495                       # mshr miss rate for overall accesses
system.cpu.dcache.demand_avg_mshr_miss_latency::.cpu.data 102345.871747                       # average overall mshr miss latency
system.cpu.dcache.demand_avg_mshr_miss_latency::total 102345.871747                       # average overall mshr miss latency
system.cpu.dcache.overall_avg_mshr_miss_latency::.cpu.data 102345.860751                       # average overall mshr miss latency
system.cpu.dcache.overall_avg_mshr_miss_latency::total 102345.860751                       # average overall mshr miss latency
system.cpu.dcache.replacements                5310978                       # number of replacements
system.cpu.dcache.ReadReq_hits::.cpu.data      1996208                       # number of ReadReq hits
system.cpu.dcache.ReadReq_hits::total         1996208                       # number of ReadReq hits
system.cpu.dcache.ReadReq_misses::.cpu.data        47786                       # number of ReadReq misses
system.cpu.dcache.ReadReq_misses::total         47786                       # number of ReadReq misses
system.cpu.dcache.ReadReq_miss_latency::.cpu.data   2074951000                       # number of ReadReq miss cycles
system.cpu.dcache.ReadReq_miss_latency::total   2074951000                       # number of ReadReq miss cycles
system.cpu.dcache.ReadReq_accesses::.cpu.data      2043994                       # number of ReadReq accesses(hits+misses)
system.cpu.dcache.ReadReq_accesses::total      2043994                       # number of ReadReq accesses(hits+misses)
system.cpu.dcache.ReadReq_miss_rate::.cpu.data     0.023379                       # miss rate for ReadReq accesses
system.cpu.dcache.ReadReq_miss_rate::total     0.023379                       # miss rate for ReadReq accesses
system.cpu.dcache.ReadReq_avg_miss_latency::.cpu.data 43421.734399                       # average ReadReq miss latency
system.cpu.dcache.ReadReq_avg_miss_latency::total 43421.734399                       # average ReadReq miss latency
system.cpu.dcache.ReadReq_mshr_hits::.cpu.data           31                       # number of ReadReq MSHR hits
system.cpu.dcache.ReadReq_mshr_hits::total           31                       # number of ReadReq MSHR hits
system.cpu.dcache.ReadReq_mshr_misses::.cpu.data        47755                       # number of ReadReq MSHR misses
system.cpu.dcache.ReadReq_mshr_misses::total        47755                       # number of ReadReq MSHR misses
system.cpu.dcache.ReadReq_mshr_miss_latency::.cpu.data   1976960000                       # number of ReadReq MSHR miss cycles
system.cpu.dcache.ReadReq_mshr_miss_latency::total   1976960000                       # number of ReadReq MSHR miss cycles
system.cpu.dcache.ReadReq_mshr_miss_rate::.cpu.data     0.023364                       # mshr miss rate for ReadReq accesses
system.cpu.dcache.ReadReq_mshr_miss_rate::total     0.023364                       # mshr miss rate for ReadReq accesses
system.cpu.dcache.ReadReq_avg_mshr_miss_latency::.cpu.data 41397.968799                       # average ReadReq mshr miss latency
system.cpu.dcache.ReadReq_avg_mshr_miss_latency::total 41397.968799                       # average ReadReq mshr miss latency
system.cpu.dcache.WriteReq_hits::.cpu.data     73811867                       # number of WriteReq hits
system.cpu.dcache.WriteReq_hits::total       73811867                       # number of WriteReq hits
system.cpu.dcache.WriteReq_misses::.cpu.data     10524580                       # number of WriteReq misses
system.cpu.dcache.WriteReq_misses::total     10524580                       # number of WriteReq misses
system.cpu.dcache.WriteReq_miss_latency::.cpu.data 1109349417998                       # number of WriteReq miss cycles
system.cpu.dcache.WriteReq_miss_latency::total 1109349417998                       # number of WriteReq miss cycles
system.cpu.dcache.WriteReq_accesses::.cpu.data     84336447                       # number of WriteReq accesses(hits+misses)
system.cpu.dcache.WriteReq_accesses::total     84336447                       # number of WriteReq accesses(hits+misses)
system.cpu.dcache.WriteReq_miss_rate::.cpu.data     0.124793                       # miss rate for WriteReq accesses
system.cpu.dcache.WriteReq_miss_rate::total     0.124793                       # miss rate for WriteReq accesses
system.cpu.dcache.WriteReq_avg_miss_latency::.cpu.data 105405.576089                       # average WriteReq miss latency
system.cpu.dcache.WriteReq_avg_miss_latency::total 105405.576089                       # average WriteReq miss latency
system.cpu.dcache.WriteReq_mshr_hits::.cpu.data      5260366                       # number of WriteReq MSHR hits
system.cpu.dcache.WriteReq_mshr_hits::total      5260366                       # number of WriteReq MSHR hits
system.cpu.dcache.WriteReq_mshr_misses::.cpu.data      5264214                       # number of WriteReq MSHR misses
system.cpu.dcache.WriteReq_mshr_misses::total      5264214                       # number of WriteReq MSHR misses
system.cpu.dcache.WriteReq_mshr_miss_latency::.cpu.data 541681138000                       # number of WriteReq MSHR miss cycles
system.cpu.dcache.WriteReq_mshr_miss_latency::total 541681138000                       # number of WriteReq MSHR miss cycles
system.cpu.dcache.WriteReq_mshr_miss_rate::.cpu.data     0.062419                       # mshr miss rate for WriteReq accesses
system.cpu.dcache.WriteReq_mshr_miss_rate::total     0.062419                       # mshr miss rate for WriteReq accesses
system.cpu.dcache.WriteReq_avg_mshr_miss_latency::.cpu.data 102898.768553                       # average WriteReq mshr miss latency
system.cpu.dcache.WriteReq_avg_mshr_miss_latency::total 102898.768553                       # average WriteReq mshr miss latency
system.cpu.dcache.SoftPFReq_hits::.cpu.data           34                       # number of SoftPFReq hits
system.cpu.dcache.SoftPFReq_hits::total            34                       # number of SoftPFReq hits
system.cpu.dcache.SoftPFReq_misses::.cpu.data           37                       # number of SoftPFReq misses
system.cpu.dcache.SoftPFReq_misses::total           37                       # number of SoftPFReq misses
system.cpu.dcache.SoftPFReq_accesses::.cpu.data           71                       # number of SoftPFReq accesses(hits+misses)
system.cpu.dcache.SoftPFReq_accesses::total           71                       # number of SoftPFReq accesses(hits+misses)
system.cpu.dcache.SoftPFReq_miss_rate::.cpu.data     0.521127                       # miss rate for SoftPFReq accesses
system.cpu.dcache.SoftPFReq_miss_rate::total     0.521127                       # miss rate for SoftPFReq accesses
system.cpu.dcache.SoftPFReq_mshr_misses::.cpu.data           33                       # number of SoftPFReq MSHR misses
system.cpu.dcache.SoftPFReq_mshr_misses::total           33                       # number of SoftPFReq MSHR misses
system.cpu.dcache.SoftPFReq_mshr_miss_latency::.cpu.data      3319000                       # number of SoftPFReq MSHR miss cycles
system.cpu.dcache.SoftPFReq_mshr_miss_latency::total      3319000                       # number of SoftPFReq MSHR miss cycles
system.cpu.dcache.SoftPFReq_mshr_miss_rate::.cpu.data     0.464789                       # mshr miss rate for SoftPFReq accesses
system.cpu.dcache.SoftPFReq_mshr_miss_rate::total     0.464789                       # mshr miss rate for SoftPFReq accesses
system.cpu.dcache.SoftPFReq_avg_mshr_miss_latency::.cpu.data 100575.757576                       # average SoftPFReq mshr miss latency
system.cpu.dcache.SoftPFReq_avg_mshr_miss_latency::total 100575.757576                       # average SoftPFReq mshr miss latency
system.cpu.dcache.LoadLockedReq_hits::.cpu.data           34                       # number of LoadLockedReq hits
system.cpu.dcache.LoadLockedReq_hits::total           34                       # number of LoadLockedReq hits
system.cpu.dcache.LoadLockedReq_accesses::.cpu.data           34                       # number of LoadLockedReq accesses(hits+misses)
system.cpu.dcache.LoadLockedReq_accesses::total           34                       # number of LoadLockedReq accesses(hits+misses)
system.cpu.dcache.StoreCondReq_hits::.cpu.data           34                       # number of StoreCondReq hits
system.cpu.dcache.StoreCondReq_hits::total           34                       # number of StoreCondReq hits
system.cpu.dcache.StoreCondReq_accesses::.cpu.data           34                       # number of StoreCondReq accesses(hits+misses)
system.cpu.dcache.StoreCondReq_accesses::total           34                       # number of StoreCondReq accesses(hits+misses)
system.cpu.dcache.power_state.pwrStateResidencyTicks::UNDEFINED 707645249000                       # Cumulative time (in ticks) in various power states
system.cpu.dcache.tags.tagsinuse          1022.904124                       # Cycle average of tags in use
system.cpu.dcache.tags.total_refs            81120179                       # Total number of references to valid blocks.
system.cpu.dcache.tags.sampled_refs           5312002                       # Sample count of references to valid blocks.
system.cpu.dcache.tags.avg_refs             15.271112                       # Average number of references to valid blocks.
system.cpu.dcache.tags.warmup_cycle            223000                       # Cycle when the warmup percentage was hit.
system.cpu.dcache.tags.occ_blocks::.cpu.data  1022.904124                       # Average occupied blocks per requestor
system.cpu.dcache.tags.occ_percent::.cpu.data     0.998930                       # Average percentage of cache occupancy
system.cpu.dcache.tags.occ_percent::total     0.998930                       # Average percentage of cache occupancy
system.cpu.dcache.tags.occ_task_id_blocks::1024         1024                       # Occupied blocks per task id
system.cpu.dcache.tags.age_task_id_blocks_1024::0           76                       # Occupied blocks per task id
system.cpu.dcache.tags.age_task_id_blocks_1024::1          679                       # Occupied blocks per task id
system.cpu.dcache.tags.age_task_id_blocks_1024::2          269                       # Occupied blocks per task id
system.cpu.dcache.tags.occ_task_id_percent::1024            1                       # Percentage of cache occupancy per task id
system.cpu.dcache.tags.tag_accesses          91692582                       # Number of tag accesses
system.cpu.dcache.tags.data_accesses         91692582                       # Number of data accesses
system.cpu.dcache.tags.power_state.pwrStateResidencyTicks::UNDEFINED 707645249000                       # Cumulative time (in ticks) in various power states
system.cpu.dtb.instHits                             0                       # ITB inst hits
system.cpu.dtb.instMisses                           0                       # ITB inst misses
system.cpu.dtb.readHits                             0                       # DTB read hits
system.cpu.dtb.readMisses                           0                       # DTB read misses
system.cpu.dtb.writeHits                            0                       # DTB write hits
system.cpu.dtb.writeMisses                          0                       # DTB write misses
system.cpu.dtb.inserts                              0                       # Number of times an entry is inserted into the TLB
system.cpu.dtb.flushTlb                             0                       # Number of times complete TLB was flushed
system.cpu.dtb.flushTlbMva                          0                       # Number of times TLB was flushed by MVA
system.cpu.dtb.flushTlbMvaAsid                      0                       # Number of times TLB was flushed by MVA & ASID
system.cpu.dtb.flushTlbAsid                         0                       # Number of times TLB was flushed by ASID
system.cpu.dtb.flushedEntries                       0                       # Number of entries that have been flushed from TLB
system.cpu.dtb.alignFaults                          0                       # Number of TLB faults due to alignment restrictions
system.cpu.dtb.prefetchFaults                       0                       # Number of TLB faults due to prefetch
system.cpu.dtb.domainFaults                         0                       # Number of TLB faults due to domain restrictions
system.cpu.dtb.permsFaults                          0                       # Number of TLB faults due to permissions restrictions
system.cpu.dtb.readAccesses                         0                       # DTB read accesses
system.cpu.dtb.writeAccesses                        0                       # DTB write accesses
system.cpu.dtb.instAccesses                         0                       # ITB inst accesses
system.cpu.dtb.hits                                 0                       # Total TLB (inst and data) hits
system.cpu.dtb.misses                               0                       # Total TLB (inst and data) misses
system.cpu.dtb.accesses                             0                       # Total TLB (inst and data) accesses
system.cpu.dtb.stage2_mmu.stage2_tlb.instHits            0                       # ITB inst hits
system.cpu.dtb.stage2_mmu.stage2_tlb.instMisses            0                       # ITB inst misses
system.cpu.dtb.stage2_mmu.stage2_tlb.readHits            0                       # DTB read hits
system.cpu.dtb.stage2_mmu.stage2_tlb.readMisses            0                       # DTB read misses
system.cpu.dtb.stage2_mmu.stage2_tlb.writeHits            0                       # DTB write hits
system.cpu.dtb.stage2_mmu.stage2_tlb.writeMisses            0                       # DTB write misses
system.cpu.dtb.stage2_mmu.stage2_tlb.inserts            0                       # Number of times an entry is inserted into the TLB
system.cpu.dtb.stage2_mmu.stage2_tlb.flushTlb            0                       # Number of times complete TLB was flushed
system.cpu.dtb.stage2_mmu.stage2_tlb.flushTlbMva            0                       # Number of times TLB was flushed by MVA
system.cpu.dtb.stage2_mmu.stage2_tlb.flushTlbMvaAsid            0                       # Number of times TLB was flushed by MVA & ASID
system.cpu.dtb.stage2_mmu.stage2_tlb.flushTlbAsid            0                       # Number of times TLB was flushed by ASID
system.cpu.dtb.stage2_mmu.stage2_tlb.flushedEntries            0                       # Number of entries that have been flushed from TLB
system.cpu.dtb.stage2_mmu.stage2_tlb.alignFaults            0                       # Number of TLB faults due to alignment restrictions
system.cpu.dtb.stage2_mmu.stage2_tlb.prefetchFaults            0                       # Number of TLB faults due to prefetch
system.cpu.dtb.stage2_mmu.stage2_tlb.domainFaults            0                       # Number of TLB faults due to domain restrictions
system.cpu.dtb.stage2_mmu.stage2_tlb.permsFaults            0                       # Number of TLB faults due to permissions restrictions
system.cpu.dtb.stage2_mmu.stage2_tlb.readAccesses            0                       # DTB read accesses
system.cpu.dtb.stage2_mmu.stage2_tlb.writeAccesses            0                       # DTB write accesses
system.cpu.dtb.stage2_mmu.stage2_tlb.instAccesses            0                       # ITB inst accesses
system.cpu.dtb.stage2_mmu.stage2_tlb.hits            0                       # Total TLB (inst and data) hits
system.cpu.dtb.stage2_mmu.stage2_tlb.misses            0                       # Total TLB (inst and data) misses
system.cpu.dtb.stage2_mmu.stage2_tlb.accesses            0                       # Total TLB (inst and data) accesses
system.cpu.dtb.stage2_mmu.stage2_tlb.walker.walks            0                       # Table walker walks requested
system.cpu.dtb.stage2_mmu.stage2_tlb.walker.requestOrigin_Requested::Data            0                       # Table walker requests started/completed, data/inst
system.cpu.dtb.stage2_mmu.stage2_tlb.walker.requestOrigin_Requested::Inst            0                       # Table walker requests started/completed, data/inst
system.cpu.dtb.stage2_mmu.stage2_tlb.walker.requestOrigin_Requested::total            0                       # Table walker requests started/completed, data/inst
system.cpu.dtb.stage2_mmu.stage2_tlb.walker.requestOrigin_Completed::Data            0                       # Table walker requests started/completed, data/inst
system.cpu.dtb.stage2_mmu.stage2_tlb.walker.requestOrigin_Completed::Inst            0                       # Table walker requests started/completed, data/inst
system.cpu.dtb.stage2_mmu.stage2_tlb.walker.requestOrigin_Completed::total            0                       # Table walker requests started/completed, data/inst
system.cpu.dtb.stage2_mmu.stage2_tlb.walker.requestOrigin::total            0                       # Table walker requests started/completed, data/inst
system.cpu.dtb.stage2_mmu.stage2_tlb.walker.power_state.pwrStateResidencyTicks::UNDEFINED 707645249000                       # Cumulative time (in ticks) in various power states
system.cpu.dtb.walker.walks                         0                       # Table walker walks requested
system.cpu.dtb.walker.requestOrigin_Requested::Data            0                       # Table walker requests started/completed, data/inst
system.cpu.dtb.walker.requestOrigin_Requested::Inst            0                       # Table walker requests started/completed, data/inst
system.cpu.dtb.walker.requestOrigin_Requested::total            0                       # Table walker requests started/completed, data/inst
system.cpu.dtb.walker.requestOrigin_Completed::Data            0                       # Table walker requests started/completed, data/inst
system.cpu.dtb.walker.requestOrigin_Completed::Inst            0                       # Table walker requests started/completed, data/inst
system.cpu.dtb.walker.requestOrigin_Completed::total            0                       # Table walker requests started/completed, data/inst
system.cpu.dtb.walker.requestOrigin::total            0                       # Table walker requests started/completed, data/inst
system.cpu.dtb.walker.power_state.pwrStateResidencyTicks::UNDEFINED 707645249000                       # Cumulative time (in ticks) in various power states
system.cpu.fetch2.intInstructions            45070572                       # Number of integer instructions successfully decoded
system.cpu.fetch2.fpInstructions                    0                       # Number of floating point instructions successfully decoded
system.cpu.fetch2.vecInstructions                   0                       # Number of SIMD instructions successfully decoded
system.cpu.fetch2.loadInstructions            2086288                       # Number of memory load instructions successfully decoded
system.cpu.fetch2.storeInstructions            169067                       # Number of memory store instructions successfully decoded
system.cpu.fetch2.amoInstructions                   0                       # Number of memory atomic instructions successfully decoded
system.cpu.icache.demand_hits::.cpu.inst     32129001                       # number of demand (read+write) hits
system.cpu.icache.demand_hits::total         32129001                       # number of demand (read+write) hits
system.cpu.icache.overall_hits::.cpu.inst     32129001                       # number of overall hits
system.cpu.icache.overall_hits::total        32129001                       # number of overall hits
system.cpu.icache.demand_misses::.cpu.inst         4840                       # number of demand (read+write) misses
system.cpu.icache.demand_misses::total           4840                       # number of demand (read+write) misses
system.cpu.icache.overall_misses::.cpu.inst         4840                       # number of overall misses
system.cpu.icache.overall_misses::total          4840                       # number of overall misses
system.cpu.icache.demand_miss_latency::.cpu.inst    246348000                       # number of demand (read+write) miss cycles
system.cpu.icache.demand_miss_latency::total    246348000                       # number of demand (read+write) miss cycles
system.cpu.icache.overall_miss_latency::.cpu.inst    246348000                       # number of overall miss cycles
system.cpu.icache.overall_miss_latency::total    246348000                       # number of overall miss cycles
system.cpu.icache.demand_accesses::.cpu.inst     32133841                       # number of demand (read+write) accesses
system.cpu.icache.demand_accesses::total     32133841                       # number of demand (read+write) accesses
system.cpu.icache.overall_accesses::.cpu.inst     32133841                       # number of overall (read+write) accesses
system.cpu.icache.overall_accesses::total     32133841                       # number of overall (read+write) accesses
system.cpu.icache.demand_miss_rate::.cpu.inst     0.000151                       # miss rate for demand accesses
system.cpu.icache.demand_miss_rate::total     0.000151                       # miss rate for demand accesses
system.cpu.icache.overall_miss_rate::.cpu.inst     0.000151                       # miss rate for overall accesses
system.cpu.icache.overall_miss_rate::total     0.000151                       # miss rate for overall accesses
system.cpu.icache.demand_avg_miss_latency::.cpu.inst 50898.347107                       # average overall miss latency
system.cpu.icache.demand_avg_miss_latency::total 50898.347107                       # average overall miss latency
system.cpu.icache.overall_avg_miss_latency::.cpu.inst 50898.347107                       # average overall miss latency
system.cpu.icache.overall_avg_miss_latency::total 50898.347107                       # average overall miss latency
system.cpu.icache.blocked_cycles::no_mshrs            0                       # number of cycles access was blocked
system.cpu.icache.blocked_cycles::no_targets            0                       # number of cycles access was blocked
system.cpu.icache.blocked::no_mshrs                 0                       # number of cycles access was blocked
system.cpu.icache.blocked::no_targets               0                       # number of cycles access was blocked
system.cpu.icache.avg_blocked_cycles::no_mshrs          nan                       # average number of cycles each access was blocked
system.cpu.icache.avg_blocked_cycles::no_targets          nan                       # average number of cycles each access was blocked
system.cpu.icache.writebacks::.writebacks         4597                       # number of writebacks
system.cpu.icache.writebacks::total              4597                       # number of writebacks
system.cpu.icache.demand_mshr_misses::.cpu.inst         4840                       # number of demand (read+write) MSHR misses
system.cpu.icache.demand_mshr_misses::total         4840                       # number of demand (read+write) MSHR misses
system.cpu.icache.overall_mshr_misses::.cpu.inst         4840                       # number of overall MSHR misses
system.cpu.icache.overall_mshr_misses::total         4840                       # number of overall MSHR misses
system.cpu.icache.demand_mshr_miss_latency::.cpu.inst    236668000                       # number of demand (read+write) MSHR miss cycles
system.cpu.icache.demand_mshr_miss_latency::total    236668000                       # number of demand (read+write) MSHR miss cycles
system.cpu.icache.overall_mshr_miss_latency::.cpu.inst    236668000                       # number of overall MSHR miss cycles
system.cpu.icache.overall_mshr_miss_latency::total    236668000                       # number of overall MSHR miss cycles
system.cpu.icache.demand_mshr_miss_rate::.cpu.inst     0.000151                       # mshr miss rate for demand accesses
system.cpu.icache.demand_mshr_miss_rate::total     0.000151                       # mshr miss rate for demand accesses
system.cpu.icache.overall_mshr_miss_rate::.cpu.inst     0.000151                       # mshr miss rate for overall accesses
system.cpu.icache.overall_mshr_miss_rate::total     0.000151                       # mshr miss rate for overall accesses
system.cpu.icache.demand_avg_mshr_miss_latency::.cpu.inst 48898.347107                       # average overall mshr miss latency
system.cpu.icache.demand_avg_mshr_miss_latency::total 48898.347107                       # average overall mshr miss latency
system.cpu.icache.overall_avg_mshr_miss_latency::.cpu.inst 48898.347107                       # average overall mshr miss latency
system.cpu.icache.overall_avg_mshr_miss_latency::total 48898.347107                       # average overall mshr miss latency
system.cpu.icache.replacements                   4597                       # number of replacements
system.cpu.icache.ReadReq_hits::.cpu.inst     32129001                       # number of ReadReq hits
system.cpu.icache.ReadReq_hits::total        32129001                       # number of ReadReq hits
system.cpu.icache.ReadReq_misses::.cpu.inst         4840                       # number of ReadReq misses
system.cpu.icache.ReadReq_misses::total          4840                       # number of ReadReq misses
system.cpu.icache.ReadReq_miss_latency::.cpu.inst    246348000                       # number of ReadReq miss cycles
system.cpu.icache.ReadReq_miss_latency::total    246348000                       # number of ReadReq miss cycles
system.cpu.icache.ReadReq_accesses::.cpu.inst     32133841                       # number of ReadReq accesses(hits+misses)
system.cpu.icache.ReadReq_accesses::total     32133841                       # number of ReadReq accesses(hits+misses)
system.cpu.icache.ReadReq_miss_rate::.cpu.inst     0.000151                       # miss rate for ReadReq accesses
system.cpu.icache.ReadReq_miss_rate::total     0.000151                       # miss rate for ReadReq accesses
system.cpu.icache.ReadReq_avg_miss_latency::.cpu.inst 50898.347107                       # average ReadReq miss latency
system.cpu.icache.ReadReq_avg_miss_latency::total 50898.347107                       # average ReadReq miss latency
system.cpu.icache.ReadReq_mshr_misses::.cpu.inst         4840                       # number of ReadReq MSHR misses
system.cpu.icache.ReadReq_mshr_misses::total         4840                       # number of ReadReq MSHR misses
system.cpu.icache.ReadReq_mshr_miss_latency::.cpu.inst    236668000                       # number of ReadReq MSHR miss cycles
system.cpu.icache.ReadReq_mshr_miss_latency::total    236668000                       # number of ReadReq MSHR miss cycles
system.cpu.icache.ReadReq_mshr_miss_rate::.cpu.inst     0.000151                       # mshr miss rate for ReadReq accesses
system.cpu.icache.ReadReq_mshr_miss_rate::total     0.000151                       # mshr miss rate for ReadReq accesses
system.cpu.icache.ReadReq_avg_mshr_miss_latency::.cpu.inst 48898.347107                       # average ReadReq mshr miss latency
system.cpu.icache.ReadReq_avg_mshr_miss_latency::total 48898.347107                       # average ReadReq mshr miss latency
system.cpu.icache.power_state.pwrStateResidencyTicks::UNDEFINED 707645249000                       # Cumulative time (in ticks) in various power states
system.cpu.icache.tags.tagsinuse           222.925516                       # Cycle average of tags in use
system.cpu.icache.tags.total_refs            32133841                       # Total number of references to valid blocks.
system.cpu.icache.tags.sampled_refs              4840                       # Sample count of references to valid blocks.
system.cpu.icache.tags.avg_refs           6639.223347                       # Average number of references to valid blocks.
system.cpu.icache.tags.warmup_cycle            108000                       # Cycle when the warmup percentage was hit.
system.cpu.icache.tags.occ_blocks::.cpu.inst   222.925516                       # Average occupied blocks per requestor
system.cpu.icache.tags.occ_percent::.cpu.inst     0.870803                       # Average percentage of cache occupancy
system.cpu.icache.tags.occ_percent::total     0.870803                       # Average percentage of cache occupancy
system.cpu.icache.tags.occ_task_id_blocks::1024          243                       # Occupied blocks per task id
system.cpu.icache.tags.age_task_id_blocks_1024::4          243                       # Occupied blocks per task id
system.cpu.icache.tags.occ_task_id_percent::1024     0.949219                       # Percentage of cache occupancy per task id
system.cpu.icache.tags.tag_accesses          32138681                       # Number of tag accesses
system.cpu.icache.tags.data_accesses         32138681                       # Number of data accesses
system.cpu.icache.tags.power_state.pwrStateResidencyTicks::UNDEFINED 707645249000                       # Cumulative time (in ticks) in various power states
system.cpu.itb.instHits                             0                       # ITB inst hits
system.cpu.itb.instMisses                           0                       # ITB inst misses
system.cpu.itb.readHits                             0                       # DTB read hits
system.cpu.itb.readMisses                           0                       # DTB read misses
system.cpu.itb.writeHits                            0                       # DTB write hits
system.cpu.itb.writeMisses                          0                       # DTB write misses
system.cpu.itb.inserts                              0                       # Number of times an entry is inserted into the TLB
system.cpu.itb.flushTlb                             0                       # Number of times complete TLB was flushed
system.cpu.itb.flushTlbMva                          0                       # Number of times TLB was flushed by MVA
system.cpu.itb.flushTlbMvaAsid                      0                       # Number of times TLB was flushed by MVA & ASID
system.cpu.itb.flushTlbAsid                         0                       # Number of times TLB was flushed by ASID
system.cpu.itb.flushedEntries                       0                       # Number of entries that have been flushed from TLB
system.cpu.itb.alignFaults                          0                       # Number of TLB faults due to alignment restrictions
system.cpu.itb.prefetchFaults                       0                       # Number of TLB faults due to prefetch
system.cpu.itb.domainFaults                         0                       # Number of TLB faults due to domain restrictions
system.cpu.itb.permsFaults                          0                       # Number of TLB faults due to permissions restrictions
system.cpu.itb.readAccesses                         0                       # DTB read accesses
system.cpu.itb.writeAccesses                        0                       # DTB write accesses
system.cpu.itb.instAccesses                         0                       # ITB inst accesses
system.cpu.itb.hits                                 0                       # Total TLB (inst and data) hits
system.cpu.itb.misses                               0                       # Total TLB (inst and data) misses
system.cpu.itb.accesses                             0                       # Total TLB (inst and data) accesses
system.cpu.itb.stage2_mmu.stage2_tlb.instHits            0                       # ITB inst hits
system.cpu.itb.stage2_mmu.stage2_tlb.instMisses            0                       # ITB inst misses
system.cpu.itb.stage2_mmu.stage2_tlb.readHits            0                       # DTB read hits
system.cpu.itb.stage2_mmu.stage2_tlb.readMisses            0                       # DTB read misses
system.cpu.itb.stage2_mmu.stage2_tlb.writeHits            0                       # DTB write hits
system.cpu.itb.stage2_mmu.stage2_tlb.writeMisses            0                       # DTB write misses
system.cpu.itb.stage2_mmu.stage2_tlb.inserts            0                       # Number of times an entry is inserted into the TLB
system.cpu.itb.stage2_mmu.stage2_tlb.flushTlb            0                       # Number of times complete TLB was flushed
system.cpu.itb.stage2_mmu.stage2_tlb.flushTlbMva            0                       # Number of times TLB was flushed by MVA
system.cpu.itb.stage2_mmu.stage2_tlb.flushTlbMvaAsid            0                       # Number of times TLB was flushed by MVA & ASID
system.cpu.itb.stage2_mmu.stage2_tlb.flushTlbAsid            0                       # Number of times TLB was flushed by ASID
system.cpu.itb.stage2_mmu.stage2_tlb.flushedEntries            0                       # Number of entries that have been flushed from TLB
system.cpu.itb.stage2_mmu.stage2_tlb.alignFaults            0                       # Number of TLB faults due to alignment restrictions
system.cpu.itb.stage2_mmu.stage2_tlb.prefetchFaults            0                       # Number of TLB faults due to prefetch
system.cpu.itb.stage2_mmu.stage2_tlb.domainFaults            0                       # Number of TLB faults due to domain restrictions
system.cpu.itb.stage2_mmu.stage2_tlb.permsFaults            0                       # Number of TLB faults due to permissions restrictions
system.cpu.itb.stage2_mmu.stage2_tlb.readAccesses            0                       # DTB read accesses
system.cpu.itb.stage2_mmu.stage2_tlb.writeAccesses            0                       # DTB write accesses
system.cpu.itb.stage2_mmu.stage2_tlb.instAccesses            0                       # ITB inst accesses
system.cpu.itb.stage2_mmu.stage2_tlb.hits            0                       # Total TLB (inst and data) hits
system.cpu.itb.stage2_mmu.stage2_tlb.misses            0                       # Total TLB (inst and data) misses
system.cpu.itb.stage2_mmu.stage2_tlb.accesses            0                       # Total TLB (inst and data) accesses
system.cpu.itb.stage2_mmu.stage2_tlb.walker.walks            0                       # Table walker walks requested
system.cpu.itb.stage2_mmu.stage2_tlb.walker.requestOrigin_Requested::Data            0                       # Table walker requests started/completed, data/inst
system.cpu.itb.stage2_mmu.stage2_tlb.walker.requestOrigin_Requested::Inst            0                       # Table walker requests started/completed, data/inst
system.cpu.itb.stage2_mmu.stage2_tlb.walker.requestOrigin_Requested::total            0                       # Table walker requests started/completed, data/inst
system.cpu.itb.stage2_mmu.stage2_tlb.walker.requestOrigin_Completed::Data            0                       # Table walker requests started/completed, data/inst
system.cpu.itb.stage2_mmu.stage2_tlb.walker.requestOrigin_Completed::Inst            0                       # Table walker requests started/completed, data/inst
system.cpu.itb.stage2_mmu.stage2_tlb.walker.requestOrigin_Completed::total            0                       # Table walker requests started/completed, data/inst
system.cpu.itb.stage2_mmu.stage2_tlb.walker.requestOrigin::total            0                       # Table walker requests started/completed, data/inst
system.cpu.itb.stage2_mmu.stage2_tlb.walker.power_state.pwrStateResidencyTicks::UNDEFINED 707645249000                       # Cumulative time (in ticks) in various power states
system.cpu.itb.walker.walks                         0                       # Table walker walks requested
system.cpu.itb.walker.requestOrigin_Requested::Data            0                       # Table walker requests started/completed, data/inst
system.cpu.itb.walker.requestOrigin_Requested::Inst            0                       # Table walker requests started/completed, data/inst
system.cpu.itb.walker.requestOrigin_Requested::total            0                       # Table walker requests started/completed, data/inst
system.cpu.itb.walker.requestOrigin_Completed::Data            0                       # Table walker requests started/completed, data/inst
system.cpu.itb.walker.requestOrigin_Completed::Inst            0                       # Table walker requests started/completed, data/inst
system.cpu.itb.walker.requestOrigin_Completed::total            0                       # Table walker requests started/completed, data/inst
system.cpu.itb.walker.requestOrigin::total            0                       # Table walker requests started/completed, data/inst
system.cpu.itb.walker.power_state.pwrStateResidencyTicks::UNDEFINED 707645249000                       # Cumulative time (in ticks) in various power states
system.cpu.power_state.pwrStateResidencyTicks::ON 707645249000                       # Cumulative time (in ticks) in various power states
system.cpu.thread_0.numInsts                100000000                       # Number of Instructions committed
system.cpu.thread_0.numOps                  184218644                       # Number of Ops committed
system.cpu.thread_0.numMemRefs                      0                       # Number of Memory References
system.cpu_clk_domain.clock                      1000                       # Clock period in ticks
system.cpu_voltage_domain.voltage                   1                       # Voltage in Volts
system.l2.demand_hits::.cpu.inst                 4230                       # number of demand (read+write) hits
system.l2.demand_hits::.cpu.data                48697                       # number of demand (read+write) hits
system.l2.demand_hits::total                    52927                       # number of demand (read+write) hits
system.l2.overall_hits::.cpu.inst                4230                       # number of overall hits
system.l2.overall_hits::.cpu.data               48697                       # number of overall hits
system.l2.overall_hits::total                   52927                       # number of overall hits
system.l2.demand_misses::.cpu.inst                610                       # number of demand (read+write) misses
system.l2.demand_misses::.cpu.data            5263305                       # number of demand (read+write) misses
system.l2.demand_misses::total                5263915                       # number of demand (read+write) misses
system.l2.overall_misses::.cpu.inst               610                       # number of overall misses
system.l2.overall_misses::.cpu.data           5263305                       # number of overall misses
system.l2.overall_misses::total               5263915                       # number of overall misses
system.l2.demand_miss_latency::.cpu.inst     60753000                       # number of demand (read+write) miss cycles
system.l2.demand_miss_latency::.cpu.data 525887958000                       # number of demand (read+write) miss cycles
system.l2.demand_miss_latency::total     525948711000                       # number of demand (read+write) miss cycles
system.l2.overall_miss_latency::.cpu.inst     60753000                       # number of overall miss cycles
system.l2.overall_miss_latency::.cpu.data 525887958000                       # number of overall miss cycles
system.l2.overall_miss_latency::total    525948711000                       # number of overall miss cycles
system.l2.demand_accesses::.cpu.inst             4840                       # number of demand (read+write) accesses
system.l2.demand_accesses::.cpu.data          5312002                       # number of demand (read+write) accesses
system.l2.demand_accesses::total              5316842                       # number of demand (read+write) accesses
system.l2.overall_accesses::.cpu.inst            4840                       # number of overall (read+write) accesses
system.l2.overall_accesses::.cpu.data         5312002                       # number of overall (read+write) accesses
system.l2.overall_accesses::total             5316842                       # number of overall (read+write) accesses
system.l2.demand_miss_rate::.cpu.inst        0.126033                       # miss rate for demand accesses
system.l2.demand_miss_rate::.cpu.data        0.990833                       # miss rate for demand accesses
system.l2.demand_miss_rate::total            0.990045                       # miss rate for demand accesses
system.l2.overall_miss_rate::.cpu.inst       0.126033                       # miss rate for overall accesses
system.l2.overall_miss_rate::.cpu.data       0.990833                       # miss rate for overall accesses
system.l2.overall_miss_rate::total           0.990045                       # miss rate for overall accesses
system.l2.demand_avg_miss_latency::.cpu.inst 99595.081967                       # average overall miss latency
system.l2.demand_avg_miss_latency::.cpu.data 99915.919370                       # average overall miss latency
system.l2.demand_avg_miss_latency::total 99915.882190                       # average overall miss latency
system.l2.overall_avg_miss_latency::.cpu.inst 99595.081967                       # average overall miss latency
system.l2.overall_avg_miss_latency::.cpu.data 99915.919370                       # average overall miss latency
system.l2.overall_avg_miss_latency::total 99915.882190                       # average overall miss latency
system.l2.blocked_cycles::no_mshrs                  0                       # number of cycles access was blocked
system.l2.blocked_cycles::no_targets                0                       # number of cycles access was blocked
system.l2.blocked::no_mshrs                         0                       # number of cycles access was blocked
system.l2.blocked::no_targets                       0                       # number of cycles access was blocked
system.l2.avg_blocked_cycles::no_mshrs            nan                       # average number of cycles each access was blocked
system.l2.avg_blocked_cycles::no_targets          nan                       # average number of cycles each access was blocked
system.l2.writebacks::.writebacks             5254853                       # number of writebacks
system.l2.writebacks::total                   5254853                       # number of writebacks
system.l2.demand_mshr_hits::.cpu.inst               1                       # number of demand (read+write) MSHR hits
system.l2.demand_mshr_hits::.cpu.data               5                       # number of demand (read+write) MSHR hits
system.l2.demand_mshr_hits::total                   6                       # number of demand (read+write) MSHR hits
system.l2.overall_mshr_hits::.cpu.inst              1                       # number of overall MSHR hits
system.l2.overall_mshr_hits::.cpu.data              5                       # number of overall MSHR hits
system.l2.overall_mshr_hits::total                  6                       # number of overall MSHR hits
system.l2.demand_mshr_misses::.cpu.inst           609                       # number of demand (read+write) MSHR misses
system.l2.demand_mshr_misses::.cpu.data       5263300                       # number of demand (read+write) MSHR misses
system.l2.demand_mshr_misses::total           5263909                       # number of demand (read+write) MSHR misses
system.l2.overall_mshr_misses::.cpu.inst          609                       # number of overall MSHR misses
system.l2.overall_mshr_misses::.cpu.data      5263300                       # number of overall MSHR misses
system.l2.overall_mshr_misses::total          5263909                       # number of overall MSHR misses
system.l2.demand_mshr_miss_latency::.cpu.inst     48470000                       # number of demand (read+write) MSHR miss cycles
system.l2.demand_mshr_miss_latency::.cpu.data 420621553000                       # number of demand (read+write) MSHR miss cycles
system.l2.demand_mshr_miss_latency::total 420670023000                       # number of demand (read+write) MSHR miss cycles
system.l2.overall_mshr_miss_latency::.cpu.inst     48470000                       # number of overall MSHR miss cycles
system.l2.overall_mshr_miss_latency::.cpu.data 420621553000                       # number of overall MSHR miss cycles
system.l2.overall_mshr_miss_latency::total 420670023000                       # number of overall MSHR miss cycles
system.l2.demand_mshr_miss_rate::.cpu.inst     0.125826                       # mshr miss rate for demand accesses
system.l2.demand_mshr_miss_rate::.cpu.data     0.990832                       # mshr miss rate for demand accesses
system.l2.demand_mshr_miss_rate::total       0.990044                       # mshr miss rate for demand accesses
system.l2.overall_mshr_miss_rate::.cpu.inst     0.125826                       # mshr miss rate for overall accesses
system.l2.overall_mshr_miss_rate::.cpu.data     0.990832                       # mshr miss rate for overall accesses
system.l2.overall_mshr_miss_rate::total      0.990044                       # mshr miss rate for overall accesses
system.l2.demand_avg_mshr_miss_latency::.cpu.inst 79589.490969                       # average overall mshr miss latency
system.l2.demand_avg_mshr_miss_latency::.cpu.data 79915.937340                       # average overall mshr miss latency
system.l2.demand_avg_mshr_miss_latency::total 79915.899572                       # average overall mshr miss latency
system.l2.overall_avg_mshr_miss_latency::.cpu.inst 79589.490969                       # average overall mshr miss latency
system.l2.overall_avg_mshr_miss_latency::.cpu.data 79915.937340                       # average overall mshr miss latency
system.l2.overall_avg_mshr_miss_latency::total 79915.899572                       # average overall mshr miss latency
system.l2.replacements                        5255838                       # number of replacements
system.l2.WritebackDirty_hits::.writebacks      5286554                       # number of WritebackDirty hits
system.l2.WritebackDirty_hits::total          5286554                       # number of WritebackDirty hits
system.l2.WritebackDirty_accesses::.writebacks      5286554                       # number of WritebackDirty accesses(hits+misses)
system.l2.WritebackDirty_accesses::total      5286554                       # number of WritebackDirty accesses(hits+misses)
system.l2.WritebackClean_hits::.writebacks         4570                       # number of WritebackClean hits
system.l2.WritebackClean_hits::total             4570                       # number of WritebackClean hits
system.l2.WritebackClean_accesses::.writebacks         4570                       # number of WritebackClean accesses(hits+misses)
system.l2.WritebackClean_accesses::total         4570                       # number of WritebackClean accesses(hits+misses)
system.l2.ReadExReq_hits::.cpu.data              1198                       # number of ReadExReq hits
system.l2.ReadExReq_hits::total                  1198                       # number of ReadExReq hits
system.l2.ReadExReq_misses::.cpu.data         5263016                       # number of ReadExReq misses
system.l2.ReadExReq_misses::total             5263016                       # number of ReadExReq misses
system.l2.ReadExReq_miss_latency::.cpu.data 525856919000                       # number of ReadExReq miss cycles
system.l2.ReadExReq_miss_latency::total  525856919000                       # number of ReadExReq miss cycles
system.l2.ReadExReq_accesses::.cpu.data       5264214                       # number of ReadExReq accesses(hits+misses)
system.l2.ReadExReq_accesses::total           5264214                       # number of ReadExReq accesses(hits+misses)
system.l2.ReadExReq_miss_rate::.cpu.data     0.999772                       # miss rate for ReadExReq accesses
system.l2.ReadExReq_miss_rate::total         0.999772                       # miss rate for ReadExReq accesses
system.l2.ReadExReq_avg_miss_latency::.cpu.data 99915.508332                       # average ReadExReq miss latency
system.l2.ReadExReq_avg_miss_latency::total 99915.508332                       # average ReadExReq miss latency
system.l2.ReadExReq_mshr_misses::.cpu.data      5263016                       # number of ReadExReq MSHR misses
system.l2.ReadExReq_mshr_misses::total        5263016                       # number of ReadExReq MSHR misses
system.l2.ReadExReq_mshr_miss_latency::.cpu.data 420596599000                       # number of ReadExReq MSHR miss cycles
system.l2.ReadExReq_mshr_miss_latency::total 420596599000                       # number of ReadExReq MSHR miss cycles
system.l2.ReadExReq_mshr_miss_rate::.cpu.data     0.999772                       # mshr miss rate for ReadExReq accesses
system.l2.ReadExReq_mshr_miss_rate::total     0.999772                       # mshr miss rate for ReadExReq accesses
system.l2.ReadExReq_avg_mshr_miss_latency::.cpu.data 79915.508332                       # average ReadExReq mshr miss latency
system.l2.ReadExReq_avg_mshr_miss_latency::total 79915.508332                       # average ReadExReq mshr miss latency
system.l2.ReadCleanReq_hits::.cpu.inst           4230                       # number of ReadCleanReq hits
system.l2.ReadCleanReq_hits::total               4230                       # number of ReadCleanReq hits
system.l2.ReadCleanReq_misses::.cpu.inst          610                       # number of ReadCleanReq misses
system.l2.ReadCleanReq_misses::total              610                       # number of ReadCleanReq misses
system.l2.ReadCleanReq_miss_latency::.cpu.inst     60753000                       # number of ReadCleanReq miss cycles
system.l2.ReadCleanReq_miss_latency::total     60753000                       # number of ReadCleanReq miss cycles
system.l2.ReadCleanReq_accesses::.cpu.inst         4840                       # number of ReadCleanReq accesses(hits+misses)
system.l2.ReadCleanReq_accesses::total           4840                       # number of ReadCleanReq accesses(hits+misses)
system.l2.ReadCleanReq_miss_rate::.cpu.inst     0.126033                       # miss rate for ReadCleanReq accesses
system.l2.ReadCleanReq_miss_rate::total      0.126033                       # miss rate for ReadCleanReq accesses
system.l2.ReadCleanReq_avg_miss_latency::.cpu.inst 99595.081967                       # average ReadCleanReq miss latency
system.l2.ReadCleanReq_avg_miss_latency::total 99595.081967                       # average ReadCleanReq miss latency
system.l2.ReadCleanReq_mshr_hits::.cpu.inst            1                       # number of ReadCleanReq MSHR hits
system.l2.ReadCleanReq_mshr_hits::total             1                       # number of ReadCleanReq MSHR hits
system.l2.ReadCleanReq_mshr_misses::.cpu.inst          609                       # number of ReadCleanReq MSHR misses
system.l2.ReadCleanReq_mshr_misses::total          609                       # number of ReadCleanReq MSHR misses
system.l2.ReadCleanReq_mshr_miss_latency::.cpu.inst     48470000                       # number of ReadCleanReq MSHR miss cycles
system.l2.ReadCleanReq_mshr_miss_latency::total     48470000                       # number of ReadCleanReq MSHR miss cycles
system.l2.ReadCleanReq_mshr_miss_rate::.cpu.inst     0.125826                       # mshr miss rate for ReadCleanReq accesses
system.l2.ReadCleanReq_mshr_miss_rate::total     0.125826                       # mshr miss rate for ReadCleanReq accesses
system.l2.ReadCleanReq_avg_mshr_miss_latency::.cpu.inst 79589.490969                       # average ReadCleanReq mshr miss latency
system.l2.ReadCleanReq_avg_mshr_miss_latency::total 79589.490969                       # average ReadCleanReq mshr miss latency
system.l2.ReadSharedReq_hits::.cpu.data         47499                       # number of ReadSharedReq hits
system.l2.ReadSharedReq_hits::total             47499                       # number of ReadSharedReq hits
system.l2.ReadSharedReq_misses::.cpu.data          289                       # number of ReadSharedReq misses
system.l2.ReadSharedReq_misses::total             289                       # number of ReadSharedReq misses
system.l2.ReadSharedReq_miss_latency::.cpu.data     31039000                       # number of ReadSharedReq miss cycles
system.l2.ReadSharedReq_miss_latency::total     31039000                       # number of ReadSharedReq miss cycles
system.l2.ReadSharedReq_accesses::.cpu.data        47788                       # number of ReadSharedReq accesses(hits+misses)
system.l2.ReadSharedReq_accesses::total         47788                       # number of ReadSharedReq accesses(hits+misses)
system.l2.ReadSharedReq_miss_rate::.cpu.data     0.006048                       # miss rate for ReadSharedReq accesses
system.l2.ReadSharedReq_miss_rate::total     0.006048                       # miss rate for ReadSharedReq accesses
system.l2.ReadSharedReq_avg_miss_latency::.cpu.data 107401.384083                       # average ReadSharedReq miss latency
system.l2.ReadSharedReq_avg_miss_latency::total 107401.384083                       # average ReadSharedReq miss latency
system.l2.ReadSharedReq_mshr_hits::.cpu.data            5                       # number of ReadSharedReq MSHR hits
system.l2.ReadSharedReq_mshr_hits::total            5                       # number of ReadSharedReq MSHR hits
system.l2.ReadSharedReq_mshr_misses::.cpu.data          284                       # number of ReadSharedReq MSHR misses
system.l2.ReadSharedReq_mshr_misses::total          284                       # number of ReadSharedReq MSHR misses
system.l2.ReadSharedReq_mshr_miss_latency::.cpu.data     24954000                       # number of ReadSharedReq MSHR miss cycles
system.l2.ReadSharedReq_mshr_miss_latency::total     24954000                       # number of ReadSharedReq MSHR miss cycles
system.l2.ReadSharedReq_mshr_miss_rate::.cpu.data     0.005943                       # mshr miss rate for ReadSharedReq accesses
system.l2.ReadSharedReq_mshr_miss_rate::total     0.005943                       # mshr miss rate for ReadSharedReq accesses
system.l2.ReadSharedReq_avg_mshr_miss_latency::.cpu.data 87866.197183                       # average ReadSharedReq mshr miss latency
system.l2.ReadSharedReq_avg_mshr_miss_latency::total 87866.197183                       # average ReadSharedReq mshr miss latency
system.l2.power_state.pwrStateResidencyTicks::UNDEFINED 707645249000                       # Cumulative time (in ticks) in various power states
system.l2.tags.tagsinuse                  8121.520849                       # Cycle average of tags in use
system.l2.tags.total_refs                    10632143                       # Total number of references to valid blocks.
system.l2.tags.sampled_refs                   5264030                       # Sample count of references to valid blocks.
system.l2.tags.avg_refs                      2.019772                       # Average number of references to valid blocks.
system.l2.tags.warmup_cycle                     87000                       # Cycle when the warmup percentage was hit.
system.l2.tags.occ_blocks::.writebacks       0.136253                       # Average occupied blocks per requestor
system.l2.tags.occ_blocks::.cpu.inst         4.434050                       # Average occupied blocks per requestor
system.l2.tags.occ_blocks::.cpu.data      8116.950546                       # Average occupied blocks per requestor
system.l2.tags.occ_percent::.writebacks      0.000017                       # Average percentage of cache occupancy
system.l2.tags.occ_percent::.cpu.inst        0.000541                       # Average percentage of cache occupancy
system.l2.tags.occ_percent::.cpu.data        0.990839                       # Average percentage of cache occupancy
system.l2.tags.occ_percent::total            0.991397                       # Average percentage of cache occupancy
system.l2.tags.occ_task_id_blocks::1024          8192                       # Occupied blocks per task id
system.l2.tags.age_task_id_blocks_1024::0           76                       # Occupied blocks per task id
system.l2.tags.age_task_id_blocks_1024::1          679                       # Occupied blocks per task id
system.l2.tags.age_task_id_blocks_1024::2         6780                       # Occupied blocks per task id
system.l2.tags.age_task_id_blocks_1024::3          657                       # Occupied blocks per task id
system.l2.tags.occ_task_id_percent::1024            1                       # Percentage of cache occupancy per task id
system.l2.tags.tag_accesses                  26528328                       # Number of tag accesses
system.l2.tags.data_accesses                 26528328                       # Number of data accesses
system.l2.tags.power_state.pwrStateResidencyTicks::UNDEFINED 707645249000                       # Cumulative time (in ticks) in various power states
system.mem_ctrls.avgPriority_.writebacks::samples   5254853.00                       # Average QoS priority value for accepted requests
system.mem_ctrls.avgPriority_.cpu.inst::samples       609.00                       # Average QoS priority value for accepted requests
system.mem_ctrls.avgPriority_.cpu.data::samples   5263300.00                       # Average QoS priority value for accepted requests
system.mem_ctrls.priorityMinLatency      0.000000018750                       # per QoS priority minimum request to response latency (s)
system.mem_ctrls.priorityMaxLatency      0.015664030500                       # per QoS priority maximum request to response latency (s)
system.mem_ctrls.numReadWriteTurnArounds       327945                       # Number of turnarounds from READ to WRITE
system.mem_ctrls.numWriteReadTurnArounds       327945                       # Number of turnarounds from WRITE to READ
system.mem_ctrls.numStayReadState            15634057                       # Number of times bus staying in READ state
system.mem_ctrls.numStayWriteState            4926897                       # Number of times bus staying in WRITE state
system.mem_ctrls.readReqs                     5263909                       # Number of read requests accepted
system.mem_ctrls.writeReqs                    5254853                       # Number of write requests accepted
system.mem_ctrls.readBursts                   5263909                       # Number of controller read bursts, including those serviced by the write queue
system.mem_ctrls.writeBursts                  5254853                       # Number of controller write bursts, including those merged in the write queue
system.mem_ctrls.servicedByWrQ                      0                       # Number of controller read bursts serviced by the write queue
system.mem_ctrls.mergedWrBursts                     0                       # Number of controller write bursts merged with an existing one
system.mem_ctrls.neitherReadNorWriteReqs            0                       # Number of requests that are neither read nor write
system.mem_ctrls.avgRdQLen                       1.00                       # Average read queue length when enqueuing
system.mem_ctrls.avgWrQLen                      25.49                       # Average write queue length when enqueuing
system.mem_ctrls.numRdRetry                         0                       # Number of times read queue was full causing retry
system.mem_ctrls.numWrRetry                         0                       # Number of times write queue was full causing retry
system.mem_ctrls.readPktSize::0                     0                       # Read request sizes (log2)
system.mem_ctrls.readPktSize::1                     0                       # Read request sizes (log2)
system.mem_ctrls.readPktSize::2                     0                       # Read request sizes (log2)
system.mem_ctrls.readPktSize::3                     0                       # Read request sizes (log2)
system.mem_ctrls.readPktSize::4                     0                       # Read request sizes (log2)
system.mem_ctrls.readPktSize::5                     0                       # Read request sizes (log2)
system.mem_ctrls.readPktSize::6               5263909                       # Read request sizes (log2)
system.mem_ctrls.writePktSize::0                    0                       # Write request sizes (log2)
system.mem_ctrls.writePktSize::1                    0                       # Write request sizes (log2)
system.mem_ctrls.writePktSize::2                    0                       # Write request sizes (log2)
system.mem_ctrls.writePktSize::3                    0                       # Write request sizes (log2)
system.mem_ctrls.writePktSize::4                    0                       # Write request sizes (log2)
system.mem_ctrls.writePktSize::5                    0                       # Write request sizes (log2)
system.mem_ctrls.writePktSize::6              5254853                       # Write request sizes (log2)
system.mem_ctrls.rdQLenPdf::0                 5263653                       # What read queue length does an incoming req see
system.mem_ctrls.rdQLenPdf::1                     233                       # What read queue length does an incoming req see
system.mem_ctrls.rdQLenPdf::2                      23                       # What read queue length does an incoming req see
system.mem_ctrls.rdQLenPdf::3                       0                       # What read queue length does an incoming req see
system.mem_ctrls.rdQLenPdf::4                       0                       # What read queue length does an incoming req see
system.mem_ctrls.rdQLenPdf::5                       0                       # What read queue length does an incoming req see
system.mem_ctrls.rdQLenPdf::6                       0                       # What read queue length does an incoming req see
system.mem_ctrls.rdQLenPdf::7                       0                       # What read queue length does an incoming req see
system.mem_ctrls.rdQLenPdf::8                       0                       # What read queue length does an incoming req see
system.mem_ctrls.rdQLenPdf::9                       0                       # What read queue length does an incoming req see
[...]
system.mem_ctrls.dram.bw_write::.writebacks    475253091                       # Write bandwidth from this memory (bytes/s)
system.mem_ctrls.dram.bw_write::total       475253091                       # Write bandwidth from this memory (bytes/s)
system.mem_ctrls.dram.bw_total::.writebacks    475253091                       # Total bandwidth to/from this memory (bytes/s)
system.mem_ctrls.dram.bw_total::.cpu.inst        55078                       # Total bandwidth to/from this memory (bytes/s)
system.mem_ctrls.dram.bw_total::.cpu.data    476017045                       # Total bandwidth to/from this memory (bytes/s)
system.mem_ctrls.dram.bw_total::total       951325214                       # Total bandwidth to/from this memory (bytes/s)
system.mem_ctrls.dram.readBursts              5263909                       # Number of DRAM read bursts
system.mem_ctrls.dram.writeBursts             5254827                       # Number of DRAM write bursts
system.mem_ctrls.dram.perBankRdBursts::0       329033                       # Per bank write bursts
system.mem_ctrls.dram.perBankRdBursts::1       329101                       # Per bank write bursts
system.mem_ctrls.dram.perBankRdBursts::2       329105                       # Per bank write bursts
system.mem_ctrls.dram.perBankRdBursts::3       329008                       # Per bank write bursts
system.mem_ctrls.dram.perBankRdBursts::4       329023                       # Per bank write bursts
system.mem_ctrls.dram.perBankRdBursts::5       329065                       # Per bank write bursts
system.mem_ctrls.dram.perBankRdBursts::6       329081                       # Per bank write bursts
system.mem_ctrls.dram.perBankRdBursts::7       328938                       # Per bank write bursts
system.mem_ctrls.dram.perBankRdBursts::8       328902                       # Per bank write bursts
system.mem_ctrls.dram.perBankRdBursts::9       328869                       # Per bank write bursts
system.mem_ctrls.dram.perBankRdBursts::10       328909                       # Per bank write bursts
system.mem_ctrls.dram.perBankRdBursts::11       328962                       # Per bank write bursts
system.mem_ctrls.dram.perBankRdBursts::12       329027                       # Per bank write bursts
system.mem_ctrls.dram.perBankRdBursts::13       329022                       # Per bank write bursts
system.mem_ctrls.dram.perBankRdBursts::14       329056                       # Per bank write bursts
system.mem_ctrls.dram.perBankRdBursts::15       328808                       # Per bank write bursts
system.mem_ctrls.dram.perBankWrBursts::0       328392                       # Per bank write bursts
system.mem_ctrls.dram.perBankWrBursts::1       328500                       # Per bank write bursts
system.mem_ctrls.dram.perBankWrBursts::2       328540                       # Per bank write bursts
system.mem_ctrls.dram.perBankWrBursts::3       328466                       # Per bank write bursts
system.mem_ctrls.dram.perBankWrBursts::4       328505                       # Per bank write bursts
system.mem_ctrls.dram.perBankWrBursts::5       328509                       # Per bank write bursts
system.mem_ctrls.dram.perBankWrBursts::6       328522                       # Per bank write bursts
system.mem_ctrls.dram.perBankWrBursts::7       328408                       # Per bank write bursts
system.mem_ctrls.dram.perBankWrBursts::8       328320                       # Per bank write bursts
system.mem_ctrls.dram.perBankWrBursts::9       328320                       # Per bank write bursts
system.mem_ctrls.dram.perBankWrBursts::10       328320                       # Per bank write bursts
system.mem_ctrls.dram.perBankWrBursts::11       328394                       # Per bank write bursts
system.mem_ctrls.dram.perBankWrBursts::12       328466                       # Per bank write bursts
system.mem_ctrls.dram.perBankWrBursts::13       328446                       # Per bank write bursts
system.mem_ctrls.dram.perBankWrBursts::14       328454                       # Per bank write bursts
system.mem_ctrls.dram.perBankWrBursts::15       328265                       # Per bank write bursts
system.mem_ctrls.dram.totQLat             52132282000                       # Total ticks spent queuing
system.mem_ctrls.dram.totBusLat           26319545000                       # Total ticks spent in databus transfers
system.mem_ctrls.dram.totMemAccLat       150830575750                       # Total ticks spent from burst creation until serviced by the DRAM
system.mem_ctrls.dram.avgQLat                 9903.72                       # Average queueing delay per DRAM burst
system.mem_ctrls.dram.avgBusLat               5000.00                       # Average bus latency per DRAM burst
system.mem_ctrls.dram.avgMemAccLat           28653.72                       # Average memory access latency per DRAM burst
system.mem_ctrls.dram.readRowHits             4811128                       # Number of row buffer hits during reads
system.mem_ctrls.dram.writeRowHits            4894316                       # Number of row buffer hits during writes
system.mem_ctrls.dram.readRowHitRate            91.40                       # Row buffer hit rate for reads
system.mem_ctrls.dram.writeRowHitRate           93.14                       # Row buffer hit rate for writes
system.mem_ctrls.dram.bytesPerActivate::samples       813291                       # Bytes accessed per row activation
system.mem_ctrls.dram.bytesPerActivate::mean   827.746034                       # Bytes accessed per row activation
system.mem_ctrls.dram.bytesPerActivate::gmean   702.895482                       # Bytes accessed per row activation
system.mem_ctrls.dram.bytesPerActivate::stdev   313.417653                       # Bytes accessed per row activation
system.mem_ctrls.dram.bytesPerActivate::0-127        40441      4.97%      4.97% # Bytes accessed per row activation
system.mem_ctrls.dram.bytesPerActivate::128-255        27872      3.43%      8.40% # Bytes accessed per row activation
system.mem_ctrls.dram.bytesPerActivate::256-383        37199      4.57%     12.97% # Bytes accessed per row activation
system.mem_ctrls.dram.bytesPerActivate::384-511        40510      4.98%     17.95% # Bytes accessed per row activation
system.mem_ctrls.dram.bytesPerActivate::512-639        42027      5.17%     23.12% # Bytes accessed per row activation
system.mem_ctrls.dram.bytesPerActivate::640-767        34365      4.23%     27.35% # Bytes accessed per row activation
system.mem_ctrls.dram.bytesPerActivate::768-895        28732      3.53%     30.88% # Bytes accessed per row activation
system.mem_ctrls.dram.bytesPerActivate::896-1023        48522      5.97%     36.85% # Bytes accessed per row activation
system.mem_ctrls.dram.bytesPerActivate::1024-1151       513623     63.15%    100.00% # Bytes accessed per row activation
system.mem_ctrls.dram.bytesPerActivate::total       813291                       # Bytes accessed per row activation
system.mem_ctrls.dram.bytesRead             336890176                       # Total number of bytes read from DRAM
system.mem_ctrls.dram.bytesWritten          336308928                       # Total number of bytes written to DRAM
system.mem_ctrls.dram.avgRdBW              476.072123                       # Average DRAM read bandwidth in MiBytes/s
system.mem_ctrls.dram.avgWrBW              475.250740                       # Average DRAM write bandwidth in MiBytes/s
system.mem_ctrls.dram.peakBW                 12800.00                       # Theoretical peak bandwidth in MiByte/s
system.mem_ctrls.dram.busUtil                    7.43                       # Data bus utilization in percentage
system.mem_ctrls.dram.busUtilRead                3.72                       # Data bus utilization in percentage for reads
system.mem_ctrls.dram.busUtilWrite               3.71                       # Data bus utilization in percentage for writes
system.mem_ctrls.dram.pageHitRate               92.27                       # Row buffer hit rate, read and write combined
system.mem_ctrls.dram.power_state.pwrStateResidencyTicks::UNDEFINED 707645249000                       # Cumulative time (in ticks) in various power states
system.mem_ctrls.dram.rank0.actEnergy      2903445300                       # Energy for activate commands per rank (pJ)
system.mem_ctrls.dram.rank0.preEnergy      1543213980                       # Energy for precharge commands per rank (pJ)
system.mem_ctrls.dram.rank0.readEnergy    18795007560                       # Energy for read commands per rank (pJ)
system.mem_ctrls.dram.rank0.writeEnergy   13717335240                       # Energy for write commands per rank (pJ)
system.mem_ctrls.dram.rank0.refreshEnergy 55860327120.000008                       # Energy for refresh commands per rank (pJ)
system.mem_ctrls.dram.rank0.actBackEnergy 164978150070                       # Energy for active background per rank (pJ)
system.mem_ctrls.dram.rank0.preBackEnergy 132806807520                       # Energy for precharge background per rank (pJ)
system.mem_ctrls.dram.rank0.actPowerDownEnergy            0                       # Energy for active power-down per rank (pJ)
system.mem_ctrls.dram.rank0.prePowerDownEnergy            0                       # Energy for precharge power-down per rank (pJ)
system.mem_ctrls.dram.rank0.selfRefreshEnergy            0                       # Energy for self refresh per rank (pJ)
system.mem_ctrls.dram.rank0.totalEnergy  390604286790                       # Total energy per rank (pJ)
system.mem_ctrls.dram.rank0.averagePower   551.977544                       # Core power per rank (mW)
system.mem_ctrls.dram.rank0.totalIdleTime            0                       # Total Idle time Per DRAM Rank
system.mem_ctrls.dram.rank0.pwrStateTime::IDLE 340617937750                       # Time in different power states
system.mem_ctrls.dram.rank0.pwrStateTime::REF  23629580000                       # Time in different power states
system.mem_ctrls.dram.rank0.pwrStateTime::SREF            0                       # Time in different power states
system.mem_ctrls.dram.rank0.pwrStateTime::PRE_PDN            0                       # Time in different power states
system.mem_ctrls.dram.rank0.pwrStateTime::ACT 343397731250                       # Time in different power states
system.mem_ctrls.dram.rank0.pwrStateTime::ACT_PDN            0                       # Time in different power states
system.mem_ctrls.dram.rank1.actEnergy      2903459580                       # Energy for activate commands per rank (pJ)
system.mem_ctrls.dram.rank1.preEnergy      1543225365                       # Energy for precharge commands per rank (pJ)
system.mem_ctrls.dram.rank1.readEnergy    18789302700                       # Energy for read commands per rank (pJ)
system.mem_ctrls.dram.rank1.writeEnergy   13712861700                       # Energy for write commands per rank (pJ)
system.mem_ctrls.dram.rank1.refreshEnergy 55860327120.000008                       # Energy for refresh commands per rank (pJ)
system.mem_ctrls.dram.rank1.actBackEnergy 165041461110                       # Energy for active background per rank (pJ)
system.mem_ctrls.dram.rank1.preBackEnergy 132753492960                       # Energy for precharge background per rank (pJ)
system.mem_ctrls.dram.rank1.actPowerDownEnergy            0                       # Energy for active power-down per rank (pJ)
system.mem_ctrls.dram.rank1.prePowerDownEnergy            0                       # Energy for precharge power-down per rank (pJ)
system.mem_ctrls.dram.rank1.selfRefreshEnergy            0                       # Energy for self refresh per rank (pJ)
system.mem_ctrls.dram.rank1.totalEnergy  390604130535                       # Total energy per rank (pJ)
system.mem_ctrls.dram.rank1.averagePower   551.977324                       # Core power per rank (mW)
system.mem_ctrls.dram.rank1.totalIdleTime            0                       # Total Idle time Per DRAM Rank
system.mem_ctrls.dram.rank1.pwrStateTime::IDLE 340480974250                       # Time in different power states
system.mem_ctrls.dram.rank1.pwrStateTime::REF  23629580000                       # Time in different power states
system.mem_ctrls.dram.rank1.pwrStateTime::SREF            0                       # Time in different power states
system.mem_ctrls.dram.rank1.pwrStateTime::PRE_PDN            0                       # Time in different power states
system.mem_ctrls.dram.rank1.pwrStateTime::ACT 343534694750                       # Time in different power states
system.mem_ctrls.dram.rank1.pwrStateTime::ACT_PDN            0                       # Time in different power states
system.mem_ctrls.power_state.pwrStateResidencyTicks::UNDEFINED 707645249000                       # Cumulative time (in ticks) in various power states
system.membus.trans_dist::ReadResp                893                       # Transaction distribution
system.membus.trans_dist::WritebackDirty      5254853                       # Transaction distribution
system.membus.trans_dist::CleanEvict              611                       # Transaction distribution
system.membus.trans_dist::ReadExReq           5263016                       # Transaction distribution
system.membus.trans_dist::ReadExResp          5263016                       # Transaction distribution
system.membus.trans_dist::ReadSharedReq           893                       # Transaction distribution
system.membus.pkt_count_system.l2.mem_side_port::system.mem_ctrls.port     15783282                       # Packet count per connected requestor and responder (bytes)
system.membus.pkt_count::total               15783282                       # Packet count per connected requestor and responder (bytes)
system.membus.pkt_size_system.l2.mem_side_port::system.mem_ctrls.port    673200768                       # Cumulative packet size per connected requestor and responder (bytes)
system.membus.pkt_size::total               673200768                       # Cumulative packet size per connected requestor and responder (bytes)
system.membus.snoops                                0                       # Total snoops (count)
system.membus.snoopTraffic                          0                       # Total snoop traffic (bytes)
system.membus.snoop_fanout::samples           5263909                       # Request fanout histogram
system.membus.snoop_fanout::mean                    0                       # Request fanout histogram
system.membus.snoop_fanout::stdev                   0                       # Request fanout histogram
system.membus.snoop_fanout::underflows              0      0.00%      0.00% # Request fanout histogram
system.membus.snoop_fanout::0                 5263909    100.00%    100.00% # Request fanout histogram
system.membus.snoop_fanout::1                       0      0.00%    100.00% # Request fanout histogram
system.membus.snoop_fanout::overflows               0      0.00%    100.00% # Request fanout histogram
system.membus.snoop_fanout::min_value               0                       # Request fanout histogram
system.membus.snoop_fanout::max_value               0                       # Request fanout histogram
system.membus.snoop_fanout::total             5263909                       # Request fanout histogram
system.membus.power_state.pwrStateResidencyTicks::UNDEFINED 707645249000                       # Cumulative time (in ticks) in various power states
system.membus.reqLayer0.occupancy         31538785000                       # Layer occupancy (ticks)
system.membus.reqLayer0.utilization               4.5                       # Layer utilization (%)
system.membus.respLayer1.occupancy        27699558500                       # Layer occupancy (ticks)
system.membus.respLayer1.utilization              3.9                       # Layer utilization (%)
system.tol2bus.trans_dist::ReadResp             52628                       # Transaction distribution
system.tol2bus.trans_dist::WritebackDirty     10541407                       # Transaction distribution
system.tol2bus.trans_dist::WritebackClean         4597                       # Transaction distribution
system.tol2bus.trans_dist::CleanEvict           25409                       # Transaction distribution
system.tol2bus.trans_dist::ReadExReq          5264214                       # Transaction distribution
system.tol2bus.trans_dist::ReadExResp         5264214                       # Transaction distribution
system.tol2bus.trans_dist::ReadCleanReq          4840                       # Transaction distribution
system.tol2bus.trans_dist::ReadSharedReq        47788                       # Transaction distribution
system.tol2bus.pkt_count_system.cpu.icache.mem_side_port::system.l2.cpu_side_port        14277                       # Packet count per connected requestor and responder (bytes)
system.tol2bus.pkt_count_system.cpu.dcache.mem_side_port::system.l2.cpu_side_port     15934982                       # Packet count per connected requestor and responder (bytes)
system.tol2bus.pkt_count::total              15949259                       # Packet count per connected requestor and responder (bytes)
system.tol2bus.pkt_size_system.cpu.icache.mem_side_port::system.l2.cpu_side_port       603968                       # Cumulative packet size per connected requestor and responder (bytes)
system.tol2bus.pkt_size_system.cpu.dcache.mem_side_port::system.l2.cpu_side_port    678307584                       # Cumulative packet size per connected requestor and responder (bytes)
system.tol2bus.pkt_size::total              678911552                       # Cumulative packet size per connected requestor and responder (bytes)
system.tol2bus.snoops                         5255838                       # Total snoops (count)
system.tol2bus.snoopTraffic                 336310592                       # Total snoop traffic (bytes)
system.tol2bus.snoop_fanout::samples         10572680                       # Request fanout histogram
system.tol2bus.snoop_fanout::mean            0.000061                       # Request fanout histogram
system.tol2bus.snoop_fanout::stdev           0.007792                       # Request fanout histogram
system.tol2bus.snoop_fanout::underflows             0      0.00%      0.00% # Request fanout histogram
system.tol2bus.snoop_fanout::0               10572038     99.99%     99.99% # Request fanout histogram
system.tol2bus.snoop_fanout::1                    642      0.01%    100.00% # Request fanout histogram
system.tol2bus.snoop_fanout::2                      0      0.00%    100.00% # Request fanout histogram
system.tol2bus.snoop_fanout::overflows              0      0.00%    100.00% # Request fanout histogram
system.tol2bus.snoop_fanout::min_value              0                       # Request fanout histogram
system.tol2bus.snoop_fanout::max_value              1                       # Request fanout histogram
system.tol2bus.snoop_fanout::total           10572680                       # Request fanout histogram
system.tol2bus.power_state.pwrStateResidencyTicks::UNDEFINED 707645249000                       # Cumulative time (in ticks) in various power states
system.tol2bus.reqLayer0.occupancy        21214719000                       # Layer occupancy (ticks)
system.tol2bus.reqLayer0.utilization              3.0                       # Layer utilization (%)
system.tol2bus.respLayer0.occupancy          14520999                       # Layer occupancy (ticks)
system.tol2bus.respLayer0.utilization             0.0                       # Layer utilization (%)
system.tol2bus.respLayer1.occupancy       15936011994                       # Layer occupancy (ticks)
system.tol2bus.respLayer1.utilization             2.3                       # Layer utilization (%)
system.voltage_domain.voltage                       1                       # Voltage in Volts

---------- End Simulation Statistics   ----------
