
---------- Begin Simulation Statistics ----------
final_tick                               118805110000                       # Number of ticks from beginning of simulation (restored from checkpoints and never reset)
host_inst_rate                                 401354                       # Simulator instruction rate (inst/s)
host_mem_usage                                 665556                       # Number of bytes of host memory used
host_op_rate                                   405780                       # Simulator op (including micro ops) rate (op/s)
host_seconds                                   249.16                       # Real time elapsed on the host
host_tick_rate                              476828465                       # Simulator tick rate (ticks/s)
sim_freq                                 1000000000000                       # Frequency of simulated ticks
sim_insts                                   100000000                       # Number of instructions simulated
sim_ops                                     101102842                       # Number of ops (including micro ops) simulated
sim_seconds                                  0.118805                       # Number of seconds simulated
sim_ticks                                118805110000                       # Number of ticks simulated
system.cpu.committedInsts                   100000000                       # Number of instructions committed
system.cpu.committedOps                     101102842                       # Number of ops (including micro ops) committed
system.cpu.cpi                               1.188051                       # CPI: cycles per instruction
system.cpu.discardedOps                        974529                       # Number of ops (including micro ops) which were discarded before commit
system.cpu.idleCycles                         2848536                       # Total number of cycles that the object has spent stopped
system.cpu.ipc                               0.841715                       # IPC: instructions per cycle
system.cpu.numCycles                        118805110                       # number of cpu cycles simulated
system.cpu.numFetchSuspends                         0                       # Number of times Execute suspended instruction fetching
system.cpu.numWorkItemsCompleted                    0                       # number of work items this cpu completed
system.cpu.numWorkItemsStarted                      0                       # number of work items this cpu started
system.cpu.op_class_0::No_OpClass                   0      0.00%      0.00% # Class of committed instruction
system.cpu.op_class_0::IntAlu                55116018     54.51%     54.51% # Class of committed instruction
system.cpu.op_class_0::IntMult                 167845      0.17%     54.68% # Class of committed instruction
system.cpu.op_class_0::IntDiv                       0      0.00%     54.68% # Class of committed instruction
system.cpu.op_class_0::FloatAdd                     0      0.00%     54.68% # Class of committed instruction
system.cpu.op_class_0::FloatCmp                     0      0.00%     54.68% # Class of committed instruction
system.cpu.op_class_0::FloatCvt                     0      0.00%     54.68% # Class of committed instruction
system.cpu.op_class_0::FloatMult                    0      0.00%     54.68% # Class of committed instruction
system.cpu.op_class_0::FloatMultAcc                 0      0.00%     54.68% # Class of committed instruction
system.cpu.op_class_0::FloatDiv                     0      0.00%     54.68% # Class of committed instruction
system.cpu.op_class_0::FloatMisc                    0      0.00%     54.68% # Class of committed instruction
system.cpu.op_class_0::FloatSqrt                    0      0.00%     54.68% # Class of committed instruction
system.cpu.op_class_0::SimdAdd                    376      0.00%     54.68% # Class of committed instruction
system.cpu.op_class_0::SimdAddAcc                   0      0.00%     54.68% # Class of committed instruction
system.cpu.op_class_0::SimdAlu                    466      0.00%     54.68% # Class of committed instruction
system.cpu.op_class_0::SimdCmp                    378      0.00%     54.68% # Class of committed instruction
system.cpu.op_class_0::SimdCvt                      0      0.00%     54.68% # Class of committed instruction
system.cpu.op_class_0::SimdMisc                    53      0.00%     54.68% # Class of committed instruction
system.cpu.op_class_0::SimdMult                     0      0.00%     54.68% # Class of committed instruction
system.cpu.op_class_0::SimdMultAcc                  0      0.00%     54.68% # Class of committed instruction
system.cpu.op_class_0::SimdShift                    0      0.00%     54.68% # Class of committed instruction
system.cpu.op_class_0::SimdShiftAcc                 0      0.00%     54.68% # Class of committed instruction
system.cpu.op_class_0::SimdDiv                      0      0.00%     54.68% # Class of committed instruction
system.cpu.op_class_0::SimdSqrt                     0      0.00%     54.68% # Class of committed instruction
system.cpu.op_class_0::SimdFloatAdd            267609      0.26%     54.95% # Class of committed instruction
system.cpu.op_class_0::SimdFloatAlu                 0      0.00%     54.95% # Class of committed instruction
system.cpu.op_class_0::SimdFloatCmp            259630      0.26%     55.20% # Class of committed instruction
system.cpu.op_class_0::SimdFloatCvt            161456      0.16%     55.36% # Class of committed instruction
system.cpu.op_class_0::SimdFloatDiv             54308      0.05%     55.42% # Class of committed instruction
system.cpu.op_class_0::SimdFloatMisc           483616      0.48%     55.90% # Class of committed instruction
system.cpu.op_class_0::SimdFloatMult            33524      0.03%     55.93% # Class of committed instruction
system.cpu.op_class_0::SimdFloatMultAcc         11115      0.01%     55.94% # Class of committed instruction
system.cpu.op_class_0::SimdFloatSqrt                0      0.00%     55.94% # Class of committed instruction
system.cpu.op_class_0::SimdReduceAdd                0      0.00%     55.94% # Class of committed instruction
system.cpu.op_class_0::SimdReduceAlu                0      0.00%     55.94% # Class of committed instruction
system.cpu.op_class_0::SimdReduceCmp                0      0.00%     55.94% # Class of committed instruction
system.cpu.op_class_0::SimdFloatReduceAdd            0      0.00%     55.94% # Class of committed instruction
system.cpu.op_class_0::SimdFloatReduceCmp            0      0.00%     55.94% # Class of committed instruction
system.cpu.op_class_0::SimdAes                      0      0.00%     55.94% # Class of committed instruction
system.cpu.op_class_0::SimdAesMix                   0      0.00%     55.94% # Class of committed instruction
system.cpu.op_class_0::SimdSha1Hash                 0      0.00%     55.94% # Class of committed instruction
system.cpu.op_class_0::SimdSha1Hash2                0      0.00%     55.94% # Class of committed instruction
system.cpu.op_class_0::SimdSha256Hash               0      0.00%     55.94% # Class of committed instruction
system.cpu.op_class_0::SimdSha256Hash2              0      0.00%     55.94% # Class of committed instruction
system.cpu.op_class_0::SimdShaSigma2                0      0.00%     55.94% # Class of committed instruction
system.cpu.op_class_0::SimdShaSigma3                0      0.00%     55.94% # Class of committed instruction
system.cpu.op_class_0::SimdPredAlu                  0      0.00%     55.94% # Class of committed instruction
system.cpu.op_class_0::MemRead               38167367     37.75%     93.69% # Class of committed instruction
system.cpu.op_class_0::MemWrite               6379081      6.31%    100.00% # Class of committed instruction
system.cpu.op_class_0::FloatMemRead                 0      0.00%    100.00% # Class of committed instruction
system.cpu.op_class_0::FloatMemWrite                0      0.00%    100.00% # Class of committed instruction
system.cpu.op_class_0::IprAccess                    0      0.00%    100.00% # Class of committed instruction
system.cpu.op_class_0::InstPrefetch                 0      0.00%    100.00% # Class of committed instruction
system.cpu.op_class_0::total                101102842                       # Class of committed instruction
system.cpu.tickCycles                       115956574                       # Number of cycles that the object actually ticked
system.cpu.workload.numSyscalls                    32                       # Number of system calls
system.membus.snoop_filter.hit_multi_requests            0                       # Number of requests hitting in the snoop filter with multiple (>1) holders of the requested data.
system.membus.snoop_filter.hit_multi_snoops            0                       # Number of snoops hitting in the snoop filter with multiple (>1) holders of the requested data.
system.membus.snoop_filter.hit_single_requests           87                       # Number of requests hitting in the snoop filter with a single holder of the requested data.
system.membus.snoop_filter.hit_single_snoops            0                       # Number of snoops hitting in the snoop filter with a single holder of the requested data.
system.membus.snoop_filter.tot_requests          5583                       # Total number of requests made to the snoop filter.
system.membus.snoop_filter.tot_snoops               0                       # Total number of snoops made to the snoop filter.
system.tol2bus.snoop_filter.hit_multi_requests         1780                       # Number of requests hitting in the snoop filter with multiple (>1) holders of the requested data.
system.tol2bus.snoop_filter.hit_multi_snoops            1                       # Number of snoops hitting in the snoop filter with multiple (>1) holders of the requested data.
system.tol2bus.snoop_filter.hit_single_requests        94611                       # Number of requests hitting in the snoop filter with a single holder of the requested data.
system.tol2bus.snoop_filter.hit_single_snoops          181                       # Number of snoops hitting in the snoop filter with a single holder of the requested data.
system.tol2bus.snoop_filter.tot_requests       190541                       # Total number of requests made to the snoop filter.
system.tol2bus.snoop_filter.tot_snoops            182                       # Total number of snoops made to the snoop filter.
system.clk_domain.clock                          1000                       # Clock period in ticks
system.cpu.branchPred.lookups                 6501067                       # Number of BP lookups
system.cpu.branchPred.condPredicted           5093382                       # Number of conditional branches predicted
system.cpu.branchPred.condIncorrect            349128                       # Number of conditional branches incorrect
system.cpu.branchPred.BTBLookups              4084028                       # Number of BTB lookups
system.cpu.branchPred.BTBHits                 4076718                       # Number of BTB hits
system.cpu.branchPred.BTBHitPct             99.821010                       # BTB Hit Percentage
system.cpu.branchPred.RASUsed                  312508                       # Number of times the RAS was used to get a target.
system.cpu.branchPred.RASIncorrect                  4                       # Number of incorrect RAS predictions.
system.cpu.branchPred.indirectLookups          675681                       # Number of indirect predictor lookups.
system.cpu.branchPred.indirectHits             102894                       # Number of indirect target hits.
system.cpu.branchPred.indirectMisses           572787                       # Number of indirect misses.
system.cpu.branchPred.indirectMispredicted        37437                       # Number of mispredicted indirect branches.
system.cpu.dcache.demand_hits::.cpu.data     43807627                       # number of demand (read+write) hits
system.cpu.dcache.demand_hits::total         43807627                       # number of demand (read+write) hits
system.cpu.dcache.overall_hits::.cpu.data     43816210                       # number of overall hits
system.cpu.dcache.overall_hits::total        43816210                       # number of overall hits
system.cpu.dcache.demand_misses::.cpu.data        94193                       # number of demand (read+write) misses
system.cpu.dcache.demand_misses::total          94193                       # number of demand (read+write) misses
system.cpu.dcache.overall_misses::.cpu.data        94359                       # number of overall misses
system.cpu.dcache.overall_misses::total         94359                       # number of overall misses
system.cpu.dcache.demand_miss_latency::.cpu.data   2930136000                       # number of demand (read+write) miss cycles
system.cpu.dcache.demand_miss_latency::total   2930136000                       # number of demand (read+write) miss cycles
system.cpu.dcache.overall_miss_latency::.cpu.data   2930136000                       # number of overall miss cycles
system.cpu.dcache.overall_miss_latency::total   2930136000                       # number of overall miss cycles
system.cpu.dcache.demand_accesses::.cpu.data     43901820                       # number of demand (read+write) accesses
system.cpu.dcache.demand_accesses::total     43901820                       # number of demand (read+write) accesses
system.cpu.dcache.overall_accesses::.cpu.data     43910569                       # number of overall (read+write) accesses
system.cpu.dcache.overall_accesses::total     43910569                       # number of overall (read+write) accesses
system.cpu.dcache.demand_miss_rate::.cpu.data     0.002146                       # miss rate for demand accesses
system.cpu.dcache.demand_miss_rate::total     0.002146                       # miss rate for demand accesses
system.cpu.dcache.overall_miss_rate::.cpu.data     0.002149                       # miss rate for overall accesses
system.cpu.dcache.overall_miss_rate::total     0.002149                       # miss rate for overall accesses
system.cpu.dcache.demand_avg_miss_latency::.cpu.data 31107.789326                       # average overall miss latency
system.cpu.dcache.demand_avg_miss_latency::total 31107.789326                       # average overall miss latency
system.cpu.dcache.overall_avg_miss_latency::.cpu.data 31053.063301                       # average overall miss latency
system.cpu.dcache.overall_avg_miss_latency::total 31053.063301                       # average overall miss latency
system.cpu.dcache.blocked_cycles::no_mshrs           62                       # number of cycles access was blocked
system.cpu.dcache.blocked_cycles::no_targets            0                       # number of cycles access was blocked
system.cpu.dcache.blocked::no_mshrs                 1                       # number of cycles access was blocked
system.cpu.dcache.blocked::no_targets               0                       # number of cycles access was blocked
system.cpu.dcache.avg_blocked_cycles::no_mshrs           62                       # average number of cycles each access was blocked
system.cpu.dcache.avg_blocked_cycles::no_targets          nan                       # average number of cycles each access was blocked
system.cpu.dcache.writebacks::.writebacks        85963                       # number of writebacks
system.cpu.dcache.writebacks::total             85963                       # number of writebacks
system.cpu.dcache.demand_mshr_hits::.cpu.data         5410                       # number of demand (read+write) MSHR hits
system.cpu.dcache.demand_mshr_hits::total         5410                       # number of demand (read+write) MSHR hits
system.cpu.dcache.overall_mshr_hits::.cpu.data         5410                       # number of overall MSHR hits
system.cpu.dcache.overall_mshr_hits::total         5410                       # number of overall MSHR hits
system.cpu.dcache.demand_mshr_misses::.cpu.data        88783                       # number of demand (read+write) MSHR misses
system.cpu.dcache.demand_mshr_misses::total        88783                       # number of demand (read+write) MSHR misses
system.cpu.dcache.overall_mshr_misses::.cpu.data        88935                       # number of overall MSHR misses
system.cpu.dcache.overall_mshr_misses::total        88935                       # number of overall MSHR misses
system.cpu.dcache.demand_mshr_miss_latency::.cpu.data   2467689000                       # number of demand (read+write) MSHR miss cycles
system.cpu.dcache.demand_mshr_miss_latency::total   2467689000                       # number of demand (read+write) MSHR miss cycles
system.cpu.dcache.overall_mshr_miss_latency::.cpu.data   2478374000                       # number of overall MSHR miss cycles
system.cpu.dcache.overall_mshr_miss_latency::total   2478374000                       # number of overall MSHR miss cycles
system.cpu.dcache.demand_mshr_miss_rate::.cpu.data     0.002022                       # mshr miss rate for demand accesses
system.cpu.dcache.demand_mshr_miss_rate::total     0.002022                       # mshr miss rate for demand accesses
system.cpu.dcache.overall_mshr_miss_rate::.cpu.data     0.002025                       # mshr miss rate for overall accesses
system.cpu.dcache.overall_mshr_miss_rate::total     0.002025                       # mshr miss rate for overall accesses
system.cpu.dcache.demand_avg_mshr_miss_latency::.cpu.data 27794.611581                       # average overall mshr miss latency
system.cpu.dcache.demand_avg_mshr_miss_latency::total 27794.611581                       # average overall mshr miss latency
system.cpu.dcache.overall_avg_mshr_miss_latency::.cpu.data 27867.251363                       # average overall mshr miss latency
system.cpu.dcache.overall_avg_mshr_miss_latency::total 27867.251363                       # average overall mshr miss latency
system.cpu.dcache.replacements                  88424                       # number of replacements
system.cpu.dcache.ReadReq_hits::.cpu.data     37559467                       # number of ReadReq hits
system.cpu.dcache.ReadReq_hits::total        37559467                       # number of ReadReq hits
system.cpu.dcache.ReadReq_misses::.cpu.data        21521                       # number of ReadReq misses
system.cpu.dcache.ReadReq_misses::total         21521                       # number of ReadReq misses
system.cpu.dcache.ReadReq_miss_latency::.cpu.data    603144000                       # number of ReadReq miss cycles
system.cpu.dcache.ReadReq_miss_latency::total    603144000                       # number of ReadReq miss cycles
system.cpu.dcache.ReadReq_accesses::.cpu.data     37580988                       # number of ReadReq accesses(hits+misses)
system.cpu.dcache.ReadReq_accesses::total     37580988                       # number of ReadReq accesses(hits+misses)
system.cpu.dcache.ReadReq_miss_rate::.cpu.data     0.000573                       # miss rate for ReadReq accesses
system.cpu.dcache.ReadReq_miss_rate::total     0.000573                       # miss rate for ReadReq accesses
system.cpu.dcache.ReadReq_avg_miss_latency::.cpu.data 28025.835231                       # average ReadReq miss latency
system.cpu.dcache.ReadReq_avg_miss_latency::total 28025.835231                       # average ReadReq miss latency
system.cpu.dcache.ReadReq_mshr_hits::.cpu.data          357                       # number of ReadReq MSHR hits
system.cpu.dcache.ReadReq_mshr_hits::total          357                       # number of ReadReq MSHR hits
system.cpu.dcache.ReadReq_mshr_misses::.cpu.data        21164                       # number of ReadReq MSHR misses
system.cpu.dcache.ReadReq_mshr_misses::total        21164                       # number of ReadReq MSHR misses
system.cpu.dcache.ReadReq_mshr_miss_latency::.cpu.data    549629000                       # number of ReadReq MSHR miss cycles
system.cpu.dcache.ReadReq_mshr_miss_latency::total    549629000                       # number of ReadReq MSHR miss cycles
system.cpu.dcache.ReadReq_mshr_miss_rate::.cpu.data     0.000563                       # mshr miss rate for ReadReq accesses
system.cpu.dcache.ReadReq_mshr_miss_rate::total     0.000563                       # mshr miss rate for ReadReq accesses
system.cpu.dcache.ReadReq_avg_mshr_miss_latency::.cpu.data 25969.996220                       # average ReadReq mshr miss latency
system.cpu.dcache.ReadReq_avg_mshr_miss_latency::total 25969.996220                       # average ReadReq mshr miss latency
system.cpu.dcache.WriteReq_hits::.cpu.data      6248160                       # number of WriteReq hits
system.cpu.dcache.WriteReq_hits::total        6248160                       # number of WriteReq hits
system.cpu.dcache.WriteReq_misses::.cpu.data        72672                       # number of WriteReq misses
system.cpu.dcache.WriteReq_misses::total        72672                       # number of WriteReq misses
system.cpu.dcache.WriteReq_miss_latency::.cpu.data   2326992000                       # number of WriteReq miss cycles
system.cpu.dcache.WriteReq_miss_latency::total   2326992000                       # number of WriteReq miss cycles
system.cpu.dcache.WriteReq_accesses::.cpu.data      6320832                       # number of WriteReq accesses(hits+misses)
system.cpu.dcache.WriteReq_accesses::total      6320832                       # number of WriteReq accesses(hits+misses)
system.cpu.dcache.WriteReq_miss_rate::.cpu.data     0.011497                       # miss rate for WriteReq accesses
system.cpu.dcache.WriteReq_miss_rate::total     0.011497                       # miss rate for WriteReq accesses
system.cpu.dcache.WriteReq_avg_miss_latency::.cpu.data 32020.475561                       # average WriteReq miss latency
system.cpu.dcache.WriteReq_avg_miss_latency::total 32020.475561                       # average WriteReq miss latency
system.cpu.dcache.WriteReq_mshr_hits::.cpu.data         5053                       # number of WriteReq MSHR hits
system.cpu.dcache.WriteReq_mshr_hits::total         5053                       # number of WriteReq MSHR hits
system.cpu.dcache.WriteReq_mshr_misses::.cpu.data        67619                       # number of WriteReq MSHR misses
system.cpu.dcache.WriteReq_mshr_misses::total        67619                       # number of WriteReq MSHR misses
system.cpu.dcache.WriteReq_mshr_miss_latency::.cpu.data   1918060000                       # number of WriteReq MSHR miss cycles
system.cpu.dcache.WriteReq_mshr_miss_latency::total   1918060000                       # number of WriteReq MSHR miss cycles
system.cpu.dcache.WriteReq_mshr_miss_rate::.cpu.data     0.010698                       # mshr miss rate for WriteReq accesses
system.cpu.dcache.WriteReq_mshr_miss_rate::total     0.010698                       # mshr miss rate for WriteReq accesses
system.cpu.dcache.WriteReq_avg_mshr_miss_latency::.cpu.data 28365.696032                       # average WriteReq mshr miss latency
system.cpu.dcache.WriteReq_avg_mshr_miss_latency::total 28365.696032                       # average WriteReq mshr miss latency
system.cpu.dcache.SoftPFReq_hits::.cpu.data         8583                       # number of SoftPFReq hits
system.cpu.dcache.SoftPFReq_hits::total          8583                       # number of SoftPFReq hits
system.cpu.dcache.SoftPFReq_misses::.cpu.data          166                       # number of SoftPFReq misses
system.cpu.dcache.SoftPFReq_misses::total          166                       # number of SoftPFReq misses
system.cpu.dcache.SoftPFReq_accesses::.cpu.data         8749                       # number of SoftPFReq accesses(hits+misses)
system.cpu.dcache.SoftPFReq_accesses::total         8749                       # number of SoftPFReq accesses(hits+misses)
system.cpu.dcache.SoftPFReq_miss_rate::.cpu.data     0.018974                       # miss rate for SoftPFReq accesses
system.cpu.dcache.SoftPFReq_miss_rate::total     0.018974                       # miss rate for SoftPFReq accesses
system.cpu.dcache.SoftPFReq_mshr_misses::.cpu.data          152                       # number of SoftPFReq MSHR misses
system.cpu.dcache.SoftPFReq_mshr_misses::total          152                       # number of SoftPFReq MSHR misses
system.cpu.dcache.SoftPFReq_mshr_miss_latency::.cpu.data     10685000                       # number of SoftPFReq MSHR miss cycles
system.cpu.dcache.SoftPFReq_mshr_miss_latency::total     10685000                       # number of SoftPFReq MSHR miss cycles
system.cpu.dcache.SoftPFReq_mshr_miss_rate::.cpu.data     0.017373                       # mshr miss rate for SoftPFReq accesses
system.cpu.dcache.SoftPFReq_mshr_miss_rate::total     0.017373                       # mshr miss rate for SoftPFReq accesses
system.cpu.dcache.SoftPFReq_avg_mshr_miss_latency::.cpu.data 70296.052632                       # average SoftPFReq mshr miss latency
system.cpu.dcache.SoftPFReq_avg_mshr_miss_latency::total 70296.052632                       # average SoftPFReq mshr miss latency
system.cpu.dcache.LoadLockedReq_hits::.cpu.data          165                       # number of LoadLockedReq hits
system.cpu.dcache.LoadLockedReq_hits::total          165                       # number of LoadLockedReq hits
system.cpu.dcache.LoadLockedReq_misses::.cpu.data            1                       # number of LoadLockedReq misses
system.cpu.dcache.LoadLockedReq_misses::total            1                       # number of LoadLockedReq misses
system.cpu.dcache.LoadLockedReq_miss_latency::.cpu.data       109000                       # number of LoadLockedReq miss cycles
system.cpu.dcache.LoadLockedReq_miss_latency::total       109000                       # number of LoadLockedReq miss cycles
system.cpu.dcache.LoadLockedReq_accesses::.cpu.data          166                       # number of LoadLockedReq accesses(hits+misses)
system.cpu.dcache.LoadLockedReq_accesses::total          166                       # number of LoadLockedReq accesses(hits+misses)
system.cpu.dcache.LoadLockedReq_miss_rate::.cpu.data     0.006024                       # miss rate for LoadLockedReq accesses
system.cpu.dcache.LoadLockedReq_miss_rate::total     0.006024                       # miss rate for LoadLockedReq accesses
system.cpu.dcache.LoadLockedReq_avg_miss_latency::.cpu.data       109000                       # average LoadLockedReq miss latency
system.cpu.dcache.LoadLockedReq_avg_miss_latency::total       109000                       # average LoadLockedReq miss latency
system.cpu.dcache.LoadLockedReq_mshr_misses::.cpu.data            1                       # number of LoadLockedReq MSHR misses
system.cpu.dcache.LoadLockedReq_mshr_misses::total            1                       # number of LoadLockedReq MSHR misses
system.cpu.dcache.LoadLockedReq_mshr_miss_latency::.cpu.data       107000                       # number of LoadLockedReq MSHR miss cycles
system.cpu.dcache.LoadLockedReq_mshr_miss_latency::total       107000                       # number of LoadLockedReq MSHR miss cycles
system.cpu.dcache.LoadLockedReq_mshr_miss_rate::.cpu.data     0.006024                       # mshr miss rate for LoadLockedReq accesses
system.cpu.dcache.LoadLockedReq_mshr_miss_rate::total     0.006024                       # mshr miss rate for LoadLockedReq accesses
system.cpu.dcache.LoadLockedReq_avg_mshr_miss_latency::.cpu.data       107000                       # average LoadLockedReq mshr miss latency
system.cpu.dcache.LoadLockedReq_avg_mshr_miss_latency::total       107000                       # average LoadLockedReq mshr miss latency
system.cpu.dcache.StoreCondReq_hits::.cpu.data          166                       # number of StoreCondReq hits
system.cpu.dcache.StoreCondReq_hits::total          166                       # number of StoreCondReq hits
system.cpu.dcache.StoreCondReq_accesses::.cpu.data          166                       # number of StoreCondReq accesses(hits+misses)
system.cpu.dcache.StoreCondReq_accesses::total          166                       # number of StoreCondReq accesses(hits+misses)
system.cpu.dcache.power_state.pwrStateResidencyTicks::UNDEFINED 118805110000                       # Cumulative time (in ticks) in various power states
system.cpu.dcache.tags.tagsinuse           509.783809                       # Cycle average of tags in use
system.cpu.dcache.tags.total_refs            43905477                       # Total number of references to valid blocks.
system.cpu.dcache.tags.sampled_refs             88936                       # Sample count of references to valid blocks.
system.cpu.dcache.tags.avg_refs            493.674969                       # Average number of references to valid blocks.
system.cpu.dcache.tags.warmup_cycle            223000                       # Cycle when the warmup percentage was hit.
system.cpu.dcache.tags.occ_blocks::.cpu.data   509.783809                       # Average occupied blocks per requestor
system.cpu.dcache.tags.occ_percent::.cpu.data     0.995672                       # Average percentage of cache occupancy
system.cpu.dcache.tags.occ_percent::total     0.995672                       # Average percentage of cache occupancy
system.cpu.dcache.tags.occ_task_id_blocks::1024          512                       # Occupied blocks per task id
system.cpu.dcache.tags.age_task_id_blocks_1024::0            7                       # Occupied blocks per task id
system.cpu.dcache.tags.age_task_id_blocks_1024::1           71                       # Occupied blocks per task id
system.cpu.dcache.tags.age_task_id_blocks_1024::2          347                       # Occupied blocks per task id
system.cpu.dcache.tags.age_task_id_blocks_1024::3           74                       # Occupied blocks per task id
system.cpu.dcache.tags.age_task_id_blocks_1024::4           13                       # Occupied blocks per task id
system.cpu.dcache.tags.occ_task_id_percent::1024            1                       # Percentage of cache occupancy per task id
system.cpu.dcache.tags.tag_accesses          87910738                       # Number of tag accesses
system.cpu.dcache.tags.data_accesses         87910738                       # Number of data accesses
system.cpu.dcache.tags.power_state.pwrStateResidencyTicks::UNDEFINED 118805110000                       # Cumulative time (in ticks) in various power states
system.cpu.dtb.instHits                             0                       # ITB inst hits
system.cpu.dtb.instMisses                           0                       # ITB inst misses
system.cpu.dtb.readHits                             0                       # DTB read hits
system.cpu.dtb.readMisses                           0                       # DTB read misses
system.cpu.dtb.writeHits                            0                       # DTB write hits
system.cpu.dtb.writeMisses                          0                       # DTB write misses
system.cpu.dtb.inserts                              0                       # Number of times an entry is inserted into the TLB
system.cpu.dtb.flushTlb                             0                       # Number of times complete TLB was flushed
system.cpu.dtb.flushTlbMva                          0                       # Number of times TLB was flushed by MVA
system.cpu.dtb.flushTlbMvaAsid                      0                       # Number of times TLB was flushed by MVA & ASID
system.cpu.dtb.flushTlbAsid                         0                       # Number of times TLB was flushed by ASID
system.cpu.dtb.flushedEntries                       0                       # Number of entries that have been flushed from TLB
system.cpu.dtb.alignFaults                          0                       # Number of TLB faults due to alignment restrictions
system.cpu.dtb.prefetchFaults                       0                       # Number of TLB faults due to prefetch
system.cpu.dtb.domainFaults                         0                       # Number of TLB faults due to domain restrictions
system.cpu.dtb.permsFaults                          0                       # Number of TLB faults due to permissions restrictions
system.cpu.dtb.readAccesses                         0                       # DTB read accesses
system.cpu.dtb.writeAccesses                        0                       # DTB write accesses
system.cpu.dtb.instAccesses                         0                       # ITB inst accesses
system.cpu.dtb.hits                                 0                       # Total TLB (inst and data) hits
system.cpu.dtb.misses                               0                       # Total TLB (inst and data) misses
system.cpu.dtb.accesses                             0                       # Total TLB (inst and data) accesses
system.cpu.dtb.stage2_mmu.stage2_tlb.instHits            0                       # ITB inst hits
system.cpu.dtb.stage2_mmu.stage2_tlb.instMisses            0                       # ITB inst misses
system.cpu.dtb.stage2_mmu.stage2_tlb.readHits            0                       # DTB read hits
system.cpu.dtb.stage2_mmu.stage2_tlb.readMisses            0                       # DTB read misses
system.cpu.dtb.stage2_mmu.stage2_tlb.writeHits            0                       # DTB write hits
system.cpu.dtb.stage2_mmu.stage2_tlb.writeMisses            0                       # DTB write misses
system.cpu.dtb.stage2_mmu.stage2_tlb.inserts            0                       # Number of times an entry is inserted into the TLB
system.cpu.dtb.stage2_mmu.stage2_tlb.flushTlb            0                       # Number of times complete TLB was flushed
system.cpu.dtb.stage2_mmu.stage2_tlb.flushTlbMva            0                       # Number of times TLB was flushed by MVA
system.cpu.dtb.stage2_mmu.stage2_tlb.flushTlbMvaAsid            0                       # Number of times TLB was flushed by MVA & ASID
system.cpu.dtb.stage2_mmu.stage2_tlb.flushTlbAsid            0                       # Number of times TLB was flushed by ASID
system.cpu.dtb.stage2_mmu.stage2_tlb.flushedEntries            0                       # Number of entries that have been flushed from TLB
system.cpu.dtb.stage2_mmu.stage2_tlb.alignFaults            0                       # Number of TLB faults due to alignment restrictions
system.cpu.dtb.stage2_mmu.stage2_tlb.prefetchFaults            0                       # Number of TLB faults due to prefetch
system.cpu.dtb.stage2_mmu.stage2_tlb.domainFaults            0                       # Number of TLB faults due to domain restrictions
system.cpu.dtb.stage2_mmu.stage2_tlb.permsFaults            0                       # Number of TLB faults due to permissions restrictions
system.cpu.dtb.stage2_mmu.stage2_tlb.readAccesses            0                       # DTB read accesses
system.cpu.dtb.stage2_mmu.stage2_tlb.writeAccesses            0                       # DTB write accesses
system.cpu.dtb.stage2_mmu.stage2_tlb.instAccesses            0                       # ITB inst accesses
system.cpu.dtb.stage2_mmu.stage2_tlb.hits            0                       # Total TLB (inst and data) hits
system.cpu.dtb.stage2_mmu.stage2_tlb.misses            0                       # Total TLB (inst and data) misses
system.cpu.dtb.stage2_mmu.stage2_tlb.accesses            0                       # Total TLB (inst and data) accesses
system.cpu.dtb.stage2_mmu.stage2_tlb.walker.walks            0                       # Table walker walks requested
system.cpu.dtb.stage2_mmu.stage2_tlb.walker.requestOrigin_Requested::Data            0                       # Table walker requests started/completed, data/inst
system.cpu.dtb.stage2_mmu.stage2_tlb.walker.requestOrigin_Requested::Inst            0                       # Table walker requests started/completed, data/inst
system.cpu.dtb.stage2_mmu.stage2_tlb.walker.requestOrigin_Requested::total            0                       # Table walker requests started/completed, data/inst
system.cpu.dtb.stage2_mmu.stage2_tlb.walker.requestOrigin_Completed::Data            0                       # Table walker requests started/completed, data/inst
system.cpu.dtb.stage2_mmu.stage2_tlb.walker.requestOrigin_Completed::Inst            0                       # Table walker requests started/completed, data/inst
system.cpu.dtb.stage2_mmu.stage2_tlb.walker.requestOrigin_Completed::total            0                       # Table walker requests started/completed, data/inst
system.cpu.dtb.stage2_mmu.stage2_tlb.walker.requestOrigin::total            0                       # Table walker requests started/completed, data/inst
system.cpu.dtb.stage2_mmu.stage2_tlb.walker.power_state.pwrStateResidencyTicks::UNDEFINED 118805110000                       # Cumulative time (in ticks) in various power states
system.cpu.dtb.walker.walks                         0                       # Table walker walks requested
system.cpu.dtb.walker.requestOrigin_Requested::Data            0                       # Table walker requests started/completed, data/inst
system.cpu.dtb.walker.requestOrigin_Requested::Inst            0                       # Table walker requests started/completed, data/inst
system.cpu.dtb.walker.requestOrigin_Requested::total            0                       # Table walker requests started/completed, data/inst
system.cpu.dtb.walker.requestOrigin_Completed::Data            0                       # Table walker requests started/completed, data/inst
system.cpu.dtb.walker.requestOrigin_Completed::Inst            0                       # Table walker requests started/completed, data/inst
system.cpu.dtb.walker.requestOrigin_Completed::total            0                       # Table walker requests started/completed, data/inst
system.cpu.dtb.walker.requestOrigin::total            0                       # Table walker requests started/completed, data/inst
system.cpu.dtb.walker.power_state.pwrStateResidencyTicks::UNDEFINED 118805110000                       # Cumulative time (in ticks) in various power states
system.cpu.fetch2.intInstructions            48865981                       # Number of integer instructions successfully decoded
system.cpu.fetch2.fpInstructions                    0                       # Number of floating point instructions successfully decoded
system.cpu.fetch2.vecInstructions                   0                       # Number of SIMD instructions successfully decoded
system.cpu.fetch2.loadInstructions           40553182                       # Number of memory load instructions successfully decoded
system.cpu.fetch2.storeInstructions           6265826                       # Number of memory store instructions successfully decoded
system.cpu.fetch2.amoInstructions                   0                       # Number of memory atomic instructions successfully decoded
system.cpu.icache.demand_hits::.cpu.inst     17281367                       # number of demand (read+write) hits
system.cpu.icache.demand_hits::total         17281367                       # number of demand (read+write) hits
system.cpu.icache.overall_hits::.cpu.inst     17281367                       # number of overall hits
system.cpu.icache.overall_hits::total        17281367                       # number of overall hits
system.cpu.icache.demand_misses::.cpu.inst         6998                       # number of demand (read+write) misses
system.cpu.icache.demand_misses::total           6998                       # number of demand (read+write) misses
system.cpu.icache.overall_misses::.cpu.inst         6998                       # number of overall misses
system.cpu.icache.overall_misses::total          6998                       # number of overall misses
system.cpu.icache.demand_miss_latency::.cpu.inst    282806000                       # number of demand (read+write) miss cycles
system.cpu.icache.demand_miss_latency::total    282806000                       # number of demand (read+write) miss cycles
system.cpu.icache.overall_miss_latency::.cpu.inst    282806000                       # number of overall miss cycles
system.cpu.icache.overall_miss_latency::total    282806000                       # number of overall miss cycles
system.cpu.icache.demand_accesses::.cpu.inst     17288365                       # number of demand (read+write) accesses
system.cpu.icache.demand_accesses::total     17288365                       # number of demand (read+write) accesses
system.cpu.icache.overall_accesses::.cpu.inst     17288365                       # number of overall (read+write) accesses
system.cpu.icache.overall_accesses::total     17288365                       # number of overall (read+write) accesses
system.cpu.icache.demand_miss_rate::.cpu.inst     0.000405                       # miss rate for demand accesses
system.cpu.icache.demand_miss_rate::total     0.000405                       # miss rate for demand accesses
system.cpu.icache.overall_miss_rate::.cpu.inst     0.000405                       # miss rate for overall accesses
system.cpu.icache.overall_miss_rate::total     0.000405                       # miss rate for overall accesses
system.cpu.icache.demand_avg_miss_latency::.cpu.inst 40412.403544                       # average overall miss latency
system.cpu.icache.demand_avg_miss_latency::total 40412.403544                       # average overall miss latency
system.cpu.icache.overall_avg_miss_latency::.cpu.inst 40412.403544                       # average overall miss latency
system.cpu.icache.overall_avg_miss_latency::total 40412.403544                       # average overall miss latency
system.cpu.icache.blocked_cycles::no_mshrs            0                       # number of cycles access was blocked
system.cpu.icache.blocked_cycles::no_targets            0                       # number of cycles access was blocked
system.cpu.icache.blocked::no_mshrs                 0                       # number of cycles access was blocked
system.cpu.icache.blocked::no_targets               0                       # number of cycles access was blocked
system.cpu.icache.avg_blocked_cycles::no_mshrs          nan                       # average number of cycles each access was blocked
system.cpu.icache.avg_blocked_cycles::no_targets          nan                       # average number of cycles each access was blocked
system.cpu.icache.writebacks::.writebacks         6183                       # number of writebacks
system.cpu.icache.writebacks::total              6183                       # number of writebacks
system.cpu.icache.demand_mshr_misses::.cpu.inst         6998                       # number of demand (read+write) MSHR misses
system.cpu.icache.demand_mshr_misses::total         6998                       # number of demand (read+write) MSHR misses
system.cpu.icache.overall_mshr_misses::.cpu.inst         6998                       # number of overall MSHR misses
system.cpu.icache.overall_mshr_misses::total         6998                       # number of overall MSHR misses
system.cpu.icache.demand_mshr_miss_latency::.cpu.inst    268810000                       # number of demand (read+write) MSHR miss cycles
system.cpu.icache.demand_mshr_miss_latency::total    268810000                       # number of demand (read+write) MSHR miss cycles
system.cpu.icache.overall_mshr_miss_latency::.cpu.inst    268810000                       # number of overall MSHR miss cycles
system.cpu.icache.overall_mshr_miss_latency::total    268810000                       # number of overall MSHR miss cycles
system.cpu.icache.demand_mshr_miss_rate::.cpu.inst     0.000405                       # mshr miss rate for demand accesses
system.cpu.icache.demand_mshr_miss_rate::total     0.000405                       # mshr miss rate for demand accesses
system.cpu.icache.overall_mshr_miss_rate::.cpu.inst     0.000405                       # mshr miss rate for overall accesses
system.cpu.icache.overall_mshr_miss_rate::total     0.000405                       # mshr miss rate for overall accesses
system.cpu.icache.demand_avg_mshr_miss_latency::.cpu.inst 38412.403544                       # average overall mshr miss latency
system.cpu.icache.demand_avg_mshr_miss_latency::total 38412.403544                       # average overall mshr miss latency
system.cpu.icache.overall_avg_mshr_miss_latency::.cpu.inst 38412.403544                       # average overall mshr miss latency
system.cpu.icache.overall_avg_mshr_miss_latency::total 38412.403544                       # average overall mshr miss latency
system.cpu.icache.replacements                   6183                       # number of replacements
system.cpu.icache.ReadReq_hits::.cpu.inst     17281367                       # number of ReadReq hits
system.cpu.icache.ReadReq_hits::total        17281367                       # number of ReadReq hits
system.cpu.icache.ReadReq_misses::.cpu.inst         6998                       # number of ReadReq misses
system.cpu.icache.ReadReq_misses::total          6998                       # number of ReadReq misses
system.cpu.icache.ReadReq_miss_latency::.cpu.inst    282806000                       # number of ReadReq miss cycles
system.cpu.icache.ReadReq_miss_latency::total    282806000                       # number of ReadReq miss cycles
system.cpu.icache.ReadReq_accesses::.cpu.inst     17288365                       # number of ReadReq accesses(hits+misses)
system.cpu.icache.ReadReq_accesses::total     17288365                       # number of ReadReq accesses(hits+misses)
system.cpu.icache.ReadReq_miss_rate::.cpu.inst     0.000405                       # miss rate for ReadReq accesses
system.cpu.icache.ReadReq_miss_rate::total     0.000405                       # miss rate for ReadReq accesses
system.cpu.icache.ReadReq_avg_miss_latency::.cpu.inst 40412.403544                       # average ReadReq miss latency
system.cpu.icache.ReadReq_avg_miss_latency::total 40412.403544                       # average ReadReq miss latency
system.cpu.icache.ReadReq_mshr_misses::.cpu.inst         6998                       # number of ReadReq MSHR misses
system.cpu.icache.ReadReq_mshr_misses::total         6998                       # number of ReadReq MSHR misses
system.cpu.icache.ReadReq_mshr_miss_latency::.cpu.inst    268810000                       # number of ReadReq MSHR miss cycles
system.cpu.icache.ReadReq_mshr_miss_latency::total    268810000                       # number of ReadReq MSHR miss cycles
system.cpu.icache.ReadReq_mshr_miss_rate::.cpu.inst     0.000405                       # mshr miss rate for ReadReq accesses
system.cpu.icache.ReadReq_mshr_miss_rate::total     0.000405                       # mshr miss rate for ReadReq accesses
system.cpu.icache.ReadReq_avg_mshr_miss_latency::.cpu.inst 38412.403544                       # average ReadReq mshr miss latency
system.cpu.icache.ReadReq_avg_mshr_miss_latency::total 38412.403544                       # average ReadReq mshr miss latency
system.cpu.icache.power_state.pwrStateResidencyTicks::UNDEFINED 118805110000                       # Cumulative time (in ticks) in various power states
system.cpu.icache.tags.tagsinuse           812.478392                       # Cycle average of tags in use
system.cpu.icache.tags.total_refs            17288365                       # Total number of references to valid blocks.
system.cpu.icache.tags.sampled_refs              6998                       # Sample count of references to valid blocks.
system.cpu.icache.tags.avg_refs           2470.472278                       # Average number of references to valid blocks.
system.cpu.icache.tags.warmup_cycle            108000                       # Cycle when the warmup percentage was hit.
system.cpu.icache.tags.occ_blocks::.cpu.inst   812.478392                       # Average occupied blocks per requestor
system.cpu.icache.tags.occ_percent::.cpu.inst     0.793436                       # Average percentage of cache occupancy
system.cpu.icache.tags.occ_percent::total     0.793436                       # Average percentage of cache occupancy
system.cpu.icache.tags.occ_task_id_blocks::1024          815                       # Occupied blocks per task id
system.cpu.icache.tags.age_task_id_blocks_1024::2            2                       # Occupied blocks per task id
system.cpu.icache.tags.age_task_id_blocks_1024::3            2                       # Occupied blocks per task id
system.cpu.icache.tags.age_task_id_blocks_1024::4          811                       # Occupied blocks per task id
system.cpu.icache.tags.occ_task_id_percent::1024     0.795898                       # Percentage of cache occupancy per task id
system.cpu.icache.tags.tag_accesses          17295363                       # Number of tag accesses
system.cpu.icache.tags.data_accesses         17295363                       # Number of data accesses
system.cpu.icache.tags.power_state.pwrStateResidencyTicks::UNDEFINED 118805110000                       # Cumulative time (in ticks) in various power states
system.cpu.itb.instHits                             0                       # ITB inst hits
system.cpu.itb.instMisses                           0                       # ITB inst misses
system.cpu.itb.readHits                             0                       # DTB read hits
system.cpu.itb.readMisses                           0                       # DTB read misses
system.cpu.itb.writeHits                            0                       # DTB write hits
system.cpu.itb.writeMisses                          0                       # DTB write misses
system.cpu.itb.inserts                              0                       # Number of times an entry is inserted into the TLB
system.cpu.itb.flushTlb                             0                       # Number of times complete TLB was flushed
system.cpu.itb.flushTlbMva                          0                       # Number of times TLB was flushed by MVA
system.cpu.itb.flushTlbMvaAsid                      0                       # Number of times TLB was flushed by MVA & ASID
system.cpu.itb.flushTlbAsid                         0                       # Number of times TLB was flushed by ASID
system.cpu.itb.flushedEntries                       0                       # Number of entries that have been flushed from TLB
system.cpu.itb.alignFaults                          0                       # Number of TLB faults due to alignment restrictions
system.cpu.itb.prefetchFaults                       0                       # Number of TLB faults due to prefetch
system.cpu.itb.domainFaults                         0                       # Number of TLB faults due to domain restrictions
system.cpu.itb.permsFaults                          0                       # Number of TLB faults due to permissions restrictions
system.cpu.itb.readAccesses                         0                       # DTB read accesses
system.cpu.itb.writeAccesses                        0                       # DTB write accesses
system.cpu.itb.instAccesses                         0                       # ITB inst accesses
system.cpu.itb.hits                                 0                       # Total TLB (inst and data) hits
system.cpu.itb.misses                               0                       # Total TLB (inst and data) misses
system.cpu.itb.accesses                             0                       # Total TLB (inst and data) accesses
system.cpu.itb.stage2_mmu.stage2_tlb.instHits            0                       # ITB inst hits
system.cpu.itb.stage2_mmu.stage2_tlb.instMisses            0                       # ITB inst misses
system.cpu.itb.stage2_mmu.stage2_tlb.readHits            0                       # DTB read hits
system.cpu.itb.stage2_mmu.stage2_tlb.readMisses            0                       # DTB read misses
system.cpu.itb.stage2_mmu.stage2_tlb.writeHits            0                       # DTB write hits
system.cpu.itb.stage2_mmu.stage2_tlb.writeMisses            0                       # DTB write misses
system.cpu.itb.stage2_mmu.stage2_tlb.inserts            0                       # Number of times an entry is inserted into the TLB
system.cpu.itb.stage2_mmu.stage2_tlb.flushTlb            0                       # Number of times complete TLB was flushed
system.cpu.itb.stage2_mmu.stage2_tlb.flushTlbMva            0                       # Number of times TLB was flushed by MVA
system.cpu.itb.stage2_mmu.stage2_tlb.flushTlbMvaAsid            0                       # Number of times TLB was flushed by MVA & ASID
system.cpu.itb.stage2_mmu.stage2_tlb.flushTlbAsid            0                       # Number of times TLB was flushed by ASID
system.cpu.itb.stage2_mmu.stage2_tlb.flushedEntries            0                       # Number of entries that have been flushed from TLB
system.cpu.itb.stage2_mmu.stage2_tlb.alignFaults            0                       # Number of TLB faults due to alignment restrictions
system.cpu.itb.stage2_mmu.stage2_tlb.prefetchFaults            0                       # Number of TLB faults due to prefetch
system.cpu.itb.stage2_mmu.stage2_tlb.domainFaults            0                       # Number of TLB faults due to domain restrictions
system.cpu.itb.stage2_mmu.stage2_tlb.permsFaults            0                       # Number of TLB faults due to permissions restrictions
system.cpu.itb.stage2_mmu.stage2_tlb.readAccesses            0                       # DTB read accesses
system.cpu.itb.stage2_mmu.stage2_tlb.writeAccesses            0                       # DTB write accesses
system.cpu.itb.stage2_mmu.stage2_tlb.instAccesses            0                       # ITB inst accesses
system.cpu.itb.stage2_mmu.stage2_tlb.hits            0                       # Total TLB (inst and data) hits
system.cpu.itb.stage2_mmu.stage2_tlb.misses            0                       # Total TLB (inst and data) misses
system.cpu.itb.stage2_mmu.stage2_tlb.accesses            0                       # Total TLB (inst and data) accesses
system.cpu.itb.stage2_mmu.stage2_tlb.walker.walks            0                       # Table walker walks requested
system.cpu.itb.stage2_mmu.stage2_tlb.walker.requestOrigin_Requested::Data            0                       # Table walker requests started/completed, data/inst
system.cpu.itb.stage2_mmu.stage2_tlb.walker.requestOrigin_Requested::Inst            0                       # Table walker requests started/completed, data/inst
system.cpu.itb.stage2_mmu.stage2_tlb.walker.requestOrigin_Requested::total            0                       # Table walker requests started/completed, data/inst
system.cpu.itb.stage2_mmu.stage2_tlb.walker.requestOrigin_Completed::Data            0                       # Table walker requests started/completed, data/inst
system.cpu.itb.stage2_mmu.stage2_tlb.walker.requestOrigin_Completed::Inst            0                       # Table walker requests started/completed, data/inst
system.cpu.itb.stage2_mmu.stage2_tlb.walker.requestOrigin_Completed::total            0                       # Table walker requests started/completed, data/inst
system.cpu.itb.stage2_mmu.stage2_tlb.walker.requestOrigin::total            0                       # Table walker requests started/completed, data/inst
system.cpu.itb.stage2_mmu.stage2_tlb.walker.power_state.pwrStateResidencyTicks::UNDEFINED 118805110000                       # Cumulative time (in ticks) in various power states
system.cpu.itb.walker.walks                         0                       # Table walker walks requested
system.cpu.itb.walker.requestOrigin_Requested::Data            0                       # Table walker requests started/completed, data/inst
system.cpu.itb.walker.requestOrigin_Requested::Inst            0                       # Table walker requests started/completed, data/inst
system.cpu.itb.walker.requestOrigin_Requested::total            0                       # Table walker requests started/completed, data/inst
system.cpu.itb.walker.requestOrigin_Completed::Data            0                       # Table walker requests started/completed, data/inst
system.cpu.itb.walker.requestOrigin_Completed::Inst            0                       # Table walker requests started/completed, data/inst
system.cpu.itb.walker.requestOrigin_Completed::total            0                       # Table walker requests started/completed, data/inst
system.cpu.itb.walker.requestOrigin::total            0                       # Table walker requests started/completed, data/inst
system.cpu.itb.walker.power_state.pwrStateResidencyTicks::UNDEFINED 118805110000                       # Cumulative time (in ticks) in various power states
system.cpu.power_state.pwrStateResidencyTicks::ON 118805110000                       # Cumulative time (in ticks) in various power states
system.cpu.thread_0.numInsts                100000000                       # Number of Instructions committed
system.cpu.thread_0.numOps                  101102842                       # Number of Ops committed
system.cpu.thread_0.numMemRefs                      0                       # Number of Memory References
system.cpu_clk_domain.clock                      1000                       # Clock period in ticks
system.cpu_voltage_domain.voltage                   1                       # Voltage in Volts
system.l2.demand_hits::.cpu.inst                 5697                       # number of demand (read+write) hits
system.l2.demand_hits::.cpu.data                84734                       # number of demand (read+write) hits
system.l2.demand_hits::total                    90431                       # number of demand (read+write) hits
system.l2.overall_hits::.cpu.inst                5697                       # number of overall hits
system.l2.overall_hits::.cpu.data               84734                       # number of overall hits
system.l2.overall_hits::total                   90431                       # number of overall hits
system.l2.demand_misses::.cpu.inst               1301                       # number of demand (read+write) misses
system.l2.demand_misses::.cpu.data               4202                       # number of demand (read+write) misses
system.l2.demand_misses::total                   5503                       # number of demand (read+write) misses
system.l2.overall_misses::.cpu.inst              1301                       # number of overall misses
system.l2.overall_misses::.cpu.data              4202                       # number of overall misses
system.l2.overall_misses::total                  5503                       # number of overall misses
system.l2.demand_miss_latency::.cpu.inst    127035000                       # number of demand (read+write) miss cycles
system.l2.demand_miss_latency::.cpu.data    413143000                       # number of demand (read+write) miss cycles
system.l2.demand_miss_latency::total        540178000                       # number of demand (read+write) miss cycles
system.l2.overall_miss_latency::.cpu.inst    127035000                       # number of overall miss cycles
system.l2.overall_miss_latency::.cpu.data    413143000                       # number of overall miss cycles
system.l2.overall_miss_latency::total       540178000                       # number of overall miss cycles
system.l2.demand_accesses::.cpu.inst             6998                       # number of demand (read+write) accesses
system.l2.demand_accesses::.cpu.data            88936                       # number of demand (read+write) accesses
system.l2.demand_accesses::total                95934                       # number of demand (read+write) accesses
system.l2.overall_accesses::.cpu.inst            6998                       # number of overall (read+write) accesses
system.l2.overall_accesses::.cpu.data           88936                       # number of overall (read+write) accesses
system.l2.overall_accesses::total               95934                       # number of overall (read+write) accesses
system.l2.demand_miss_rate::.cpu.inst        0.185910                       # miss rate for demand accesses
system.l2.demand_miss_rate::.cpu.data        0.047247                       # miss rate for demand accesses
system.l2.demand_miss_rate::total            0.057362                       # miss rate for demand accesses
system.l2.overall_miss_rate::.cpu.inst       0.185910                       # miss rate for overall accesses
system.l2.overall_miss_rate::.cpu.data       0.047247                       # miss rate for overall accesses
system.l2.overall_miss_rate::total           0.057362                       # miss rate for overall accesses
system.l2.demand_avg_miss_latency::.cpu.inst 97644.119908                       # average overall miss latency
system.l2.demand_avg_miss_latency::.cpu.data 98320.561637                       # average overall miss latency
system.l2.demand_avg_miss_latency::total 98160.639651                       # average overall miss latency
system.l2.overall_avg_miss_latency::.cpu.inst 97644.119908                       # average overall miss latency
system.l2.overall_avg_miss_latency::.cpu.data 98320.561637                       # average overall miss latency
system.l2.overall_avg_miss_latency::total 98160.639651                       # average overall miss latency
system.l2.blocked_cycles::no_mshrs                  0                       # number of cycles access was blocked
system.l2.blocked_cycles::no_targets                0                       # number of cycles access was blocked
system.l2.blocked::no_mshrs                         0                       # number of cycles access was blocked
system.l2.blocked::no_targets                       0                       # number of cycles access was blocked
system.l2.avg_blocked_cycles::no_mshrs            nan                       # average number of cycles each access was blocked
system.l2.avg_blocked_cycles::no_targets          nan                       # average number of cycles each access was blocked
system.l2.writebacks::.writebacks                   6                       # number of writebacks
system.l2.writebacks::total                         6                       # number of writebacks
system.l2.demand_mshr_hits::.cpu.data               6                       # number of demand (read+write) MSHR hits
system.l2.demand_mshr_hits::total                   6                       # number of demand (read+write) MSHR hits
system.l2.overall_mshr_hits::.cpu.data              6                       # number of overall MSHR hits
system.l2.overall_mshr_hits::total                  6                       # number of overall MSHR hits
system.l2.demand_mshr_misses::.cpu.inst          1301                       # number of demand (read+write) MSHR misses
system.l2.demand_mshr_misses::.cpu.data          4196                       # number of demand (read+write) MSHR misses
system.l2.demand_mshr_misses::total              5497                       # number of demand (read+write) MSHR misses
system.l2.overall_mshr_misses::.cpu.inst         1301                       # number of overall MSHR misses
system.l2.overall_mshr_misses::.cpu.data         4196                       # number of overall MSHR misses
system.l2.overall_mshr_misses::total             5497                       # number of overall MSHR misses
system.l2.demand_mshr_miss_latency::.cpu.inst    101015000                       # number of demand (read+write) MSHR miss cycles
system.l2.demand_mshr_miss_latency::.cpu.data    328772000                       # number of demand (read+write) MSHR miss cycles
system.l2.demand_mshr_miss_latency::total    429787000                       # number of demand (read+write) MSHR miss cycles
system.l2.overall_mshr_miss_latency::.cpu.inst    101015000                       # number of overall MSHR miss cycles
system.l2.overall_mshr_miss_latency::.cpu.data    328772000                       # number of overall MSHR miss cycles
system.l2.overall_mshr_miss_latency::total    429787000                       # number of overall MSHR miss cycles
system.l2.demand_mshr_miss_rate::.cpu.inst     0.185910                       # mshr miss rate for demand accesses
system.l2.demand_mshr_miss_rate::.cpu.data     0.047180                       # mshr miss rate for demand accesses
system.l2.demand_mshr_miss_rate::total       0.057300                       # mshr miss rate for demand accesses
system.l2.overall_mshr_miss_rate::.cpu.inst     0.185910                       # mshr miss rate for overall accesses
system.l2.overall_mshr_miss_rate::.cpu.data     0.047180                       # mshr miss rate for overall accesses
system.l2.overall_mshr_miss_rate::total      0.057300                       # mshr miss rate for overall accesses
system.l2.demand_avg_mshr_miss_latency::.cpu.inst 77644.119908                       # average overall mshr miss latency
system.l2.demand_avg_mshr_miss_latency::.cpu.data 78353.670162                       # average overall mshr miss latency
system.l2.demand_avg_mshr_miss_latency::total 78185.737675                       # average overall mshr miss latency
system.l2.overall_avg_mshr_miss_latency::.cpu.inst 77644.119908                       # average overall mshr miss latency
system.l2.overall_avg_mshr_miss_latency::.cpu.data 78353.670162                       # average overall mshr miss latency
system.l2.overall_avg_mshr_miss_latency::total 78185.737675                       # average overall mshr miss latency
system.l2.replacements                            258                       # number of replacements
system.l2.WritebackDirty_hits::.writebacks        85963                       # number of WritebackDirty hits
system.l2.WritebackDirty_hits::total            85963                       # number of WritebackDirty hits
system.l2.WritebackDirty_accesses::.writebacks        85963                       # number of WritebackDirty accesses(hits+misses)
system.l2.WritebackDirty_accesses::total        85963                       # number of WritebackDirty accesses(hits+misses)
system.l2.WritebackClean_hits::.writebacks         5651                       # number of WritebackClean hits
system.l2.WritebackClean_hits::total             5651                       # number of WritebackClean hits
system.l2.WritebackClean_accesses::.writebacks         5651                       # number of WritebackClean accesses(hits+misses)
system.l2.WritebackClean_accesses::total         5651                       # number of WritebackClean accesses(hits+misses)
system.l2.CleanEvict_mshr_misses::.writebacks           10                       # number of CleanEvict MSHR misses
system.l2.CleanEvict_mshr_misses::total            10                       # number of CleanEvict MSHR misses
system.l2.CleanEvict_mshr_miss_rate::.writebacks          inf                       # mshr miss rate for CleanEvict accesses
system.l2.CleanEvict_mshr_miss_rate::total          inf                       # mshr miss rate for CleanEvict accesses
system.l2.ReadExReq_hits::.cpu.data             63953                       # number of ReadExReq hits
system.l2.ReadExReq_hits::total                 63953                       # number of ReadExReq hits
system.l2.ReadExReq_misses::.cpu.data            3666                       # number of ReadExReq misses
system.l2.ReadExReq_misses::total                3666                       # number of ReadExReq misses
system.l2.ReadExReq_miss_latency::.cpu.data    360155000                       # number of ReadExReq miss cycles
system.l2.ReadExReq_miss_latency::total     360155000                       # number of ReadExReq miss cycles
system.l2.ReadExReq_accesses::.cpu.data         67619                       # number of ReadExReq accesses(hits+misses)
system.l2.ReadExReq_accesses::total             67619                       # number of ReadExReq accesses(hits+misses)
system.l2.ReadExReq_miss_rate::.cpu.data     0.054216                       # miss rate for ReadExReq accesses
system.l2.ReadExReq_miss_rate::total         0.054216                       # miss rate for ReadExReq accesses
system.l2.ReadExReq_avg_miss_latency::.cpu.data 98241.953082                       # average ReadExReq miss latency
system.l2.ReadExReq_avg_miss_latency::total 98241.953082                       # average ReadExReq miss latency
system.l2.ReadExReq_mshr_misses::.cpu.data         3666                       # number of ReadExReq MSHR misses
system.l2.ReadExReq_mshr_misses::total           3666                       # number of ReadExReq MSHR misses
system.l2.ReadExReq_mshr_miss_latency::.cpu.data    286835000                       # number of ReadExReq MSHR miss cycles
system.l2.ReadExReq_mshr_miss_latency::total    286835000                       # number of ReadExReq MSHR miss cycles
system.l2.ReadExReq_mshr_miss_rate::.cpu.data     0.054216                       # mshr miss rate for ReadExReq accesses
system.l2.ReadExReq_mshr_miss_rate::total     0.054216                       # mshr miss rate for ReadExReq accesses
system.l2.ReadExReq_avg_mshr_miss_latency::.cpu.data 78241.953082                       # average ReadExReq mshr miss latency
system.l2.ReadExReq_avg_mshr_miss_latency::total 78241.953082                       # average ReadExReq mshr miss latency
system.l2.ReadCleanReq_hits::.cpu.inst           5697                       # number of ReadCleanReq hits
system.l2.ReadCleanReq_hits::total               5697                       # number of ReadCleanReq hits
system.l2.ReadCleanReq_misses::.cpu.inst         1301                       # number of ReadCleanReq misses
system.l2.ReadCleanReq_misses::total             1301                       # number of ReadCleanReq misses
system.l2.ReadCleanReq_miss_latency::.cpu.inst    127035000                       # number of ReadCleanReq miss cycles
system.l2.ReadCleanReq_miss_latency::total    127035000                       # number of ReadCleanReq miss cycles
system.l2.ReadCleanReq_accesses::.cpu.inst         6998                       # number of ReadCleanReq accesses(hits+misses)
system.l2.ReadCleanReq_accesses::total           6998                       # number of ReadCleanReq accesses(hits+misses)
system.l2.ReadCleanReq_miss_rate::.cpu.inst     0.185910                       # miss rate for ReadCleanReq accesses
system.l2.ReadCleanReq_miss_rate::total      0.185910                       # miss rate for ReadCleanReq accesses
system.l2.ReadCleanReq_avg_miss_latency::.cpu.inst 97644.119908                       # average ReadCleanReq miss latency
system.l2.ReadCleanReq_avg_miss_latency::total 97644.119908                       # average ReadCleanReq miss latency
system.l2.ReadCleanReq_mshr_misses::.cpu.inst         1301                       # number of ReadCleanReq MSHR misses
system.l2.ReadCleanReq_mshr_misses::total         1301                       # number of ReadCleanReq MSHR misses
system.l2.ReadCleanReq_mshr_miss_latency::.cpu.inst    101015000                       # number of ReadCleanReq MSHR miss cycles
system.l2.ReadCleanReq_mshr_miss_latency::total    101015000                       # number of ReadCleanReq MSHR miss cycles
system.l2.ReadCleanReq_mshr_miss_rate::.cpu.inst     0.185910                       # mshr miss rate for ReadCleanReq accesses
system.l2.ReadCleanReq_mshr_miss_rate::total     0.185910                       # mshr miss rate for ReadCleanReq accesses
system.l2.ReadCleanReq_avg_mshr_miss_latency::.cpu.inst 77644.119908                       # average ReadCleanReq mshr miss latency
system.l2.ReadCleanReq_avg_mshr_miss_latency::total 77644.119908                       # average ReadCleanReq mshr miss latency
system.l2.ReadSharedReq_hits::.cpu.data         20781                       # number of ReadSharedReq hits
system.l2.ReadSharedReq_hits::total             20781                       # number of ReadSharedReq hits
system.l2.ReadSharedReq_misses::.cpu.data          536                       # number of ReadSharedReq misses
system.l2.ReadSharedReq_misses::total             536                       # number of ReadSharedReq misses
system.l2.ReadSharedReq_miss_latency::.cpu.data     52988000                       # number of ReadSharedReq miss cycles
system.l2.ReadSharedReq_miss_latency::total     52988000                       # number of ReadSharedReq miss cycles
system.l2.ReadSharedReq_accesses::.cpu.data        21317                       # number of ReadSharedReq accesses(hits+misses)
system.l2.ReadSharedReq_accesses::total         21317                       # number of ReadSharedReq accesses(hits+misses)
system.l2.ReadSharedReq_miss_rate::.cpu.data     0.025144                       # miss rate for ReadSharedReq accesses
system.l2.ReadSharedReq_miss_rate::total     0.025144                       # miss rate for ReadSharedReq accesses
system.l2.ReadSharedReq_avg_miss_latency::.cpu.data 98858.208955                       # average ReadSharedReq miss latency
system.l2.ReadSharedReq_avg_miss_latency::total 98858.208955                       # average ReadSharedReq miss latency
system.l2.ReadSharedReq_mshr_hits::.cpu.data            6                       # number of ReadSharedReq MSHR hits
system.l2.ReadSharedReq_mshr_hits::total            6                       # number of ReadSharedReq MSHR hits
system.l2.ReadSharedReq_mshr_misses::.cpu.data          530                       # number of ReadSharedReq MSHR misses
system.l2.ReadSharedReq_mshr_misses::total          530                       # number of ReadSharedReq MSHR misses
system.l2.ReadSharedReq_mshr_miss_latency::.cpu.data     41937000                       # number of ReadSharedReq MSHR miss cycles
system.l2.ReadSharedReq_mshr_miss_latency::total     41937000                       # number of ReadSharedReq MSHR miss cycles
system.l2.ReadSharedReq_mshr_miss_rate::.cpu.data     0.024863                       # mshr miss rate for ReadSharedReq accesses
system.l2.ReadSharedReq_mshr_miss_rate::total     0.024863                       # mshr miss rate for ReadSharedReq accesses
system.l2.ReadSharedReq_avg_mshr_miss_latency::.cpu.data 79126.415094                       # average ReadSharedReq mshr miss latency
system.l2.ReadSharedReq_avg_mshr_miss_latency::total 79126.415094                       # average ReadSharedReq mshr miss latency
system.l2.power_state.pwrStateResidencyTicks::UNDEFINED 118805110000                       # Cumulative time (in ticks) in various power states
system.l2.tags.tagsinuse                  5070.888780                       # Cycle average of tags in use
system.l2.tags.total_refs                      188745                       # Total number of references to valid blocks.
system.l2.tags.sampled_refs                      5523                       # Sample count of references to valid blocks.
system.l2.tags.avg_refs                     34.174362                       # Average number of references to valid blocks.
system.l2.tags.warmup_cycle                     87000                       # Cycle when the warmup percentage was hit.
system.l2.tags.occ_blocks::.writebacks      20.625661                       # Average occupied blocks per requestor
system.l2.tags.occ_blocks::.cpu.inst      1106.211296                       # Average occupied blocks per requestor
system.l2.tags.occ_blocks::.cpu.data      3944.051823                       # Average occupied blocks per requestor
system.l2.tags.occ_percent::.writebacks      0.002518                       # Average percentage of cache occupancy
system.l2.tags.occ_percent::.cpu.inst        0.135036                       # Average percentage of cache occupancy
system.l2.tags.occ_percent::.cpu.data        0.481452                       # Average percentage of cache occupancy
system.l2.tags.occ_percent::total            0.619005                       # Average percentage of cache occupancy
system.l2.tags.occ_task_id_blocks::1024          5265                       # Occupied blocks per task id
system.l2.tags.age_task_id_blocks_1024::4         5265                       # Occupied blocks per task id
system.l2.tags.occ_task_id_percent::1024     0.642700                       # Percentage of cache occupancy per task id
system.l2.tags.tag_accesses                    383045                       # Number of tag accesses
system.l2.tags.data_accesses                   383045                       # Number of data accesses
system.l2.tags.power_state.pwrStateResidencyTicks::UNDEFINED 118805110000                       # Cumulative time (in ticks) in various power states
system.mem_ctrls.avgPriority_.writebacks::samples         6.00                       # Average QoS priority value for accepted requests
system.mem_ctrls.avgPriority_.cpu.inst::samples      1301.00                       # Average QoS priority value for accepted requests
system.mem_ctrls.avgPriority_.cpu.data::samples      4192.00                       # Average QoS priority value for accepted requests
system.mem_ctrls.priorityMinLatency      0.000000018750                       # per QoS priority minimum request to response latency (s)
system.mem_ctrls.priorityMaxLatency      0.000000579000                       # per QoS priority maximum request to response latency (s)
system.mem_ctrls.numReadWriteTurnArounds            0                       # Number of turnarounds from READ to WRITE
system.mem_ctrls.numWriteReadTurnArounds            0                       # Number of turnarounds from WRITE to READ
system.mem_ctrls.numStayReadState               41503                       # Number of times bus staying in READ state
system.mem_ctrls.numStayWriteState                  0                       # Number of times bus staying in WRITE state
system.mem_ctrls.readReqs                        5497                       # Number of read requests accepted
system.mem_ctrls.writeReqs                          6                       # Number of write requests accepted
system.mem_ctrls.readBursts                      5497                       # Number of controller read bursts, including those serviced by the write queue
system.mem_ctrls.writeBursts                        6                       # Number of controller write bursts, including those merged in the write queue
system.mem_ctrls.servicedByWrQ                      4                       # Number of controller read bursts serviced by the write queue
system.mem_ctrls.mergedWrBursts                     0                       # Number of controller write bursts merged with an existing one
system.mem_ctrls.neitherReadNorWriteReqs            0                       # Number of requests that are neither read nor write
system.mem_ctrls.avgRdQLen                       1.00                       # Average read queue length when enqueuing
system.mem_ctrls.avgWrQLen                       5.64                       # Average write queue length when enqueuing
system.mem_ctrls.numRdRetry                         0                       # Number of times read queue was full causing retry
system.mem_ctrls.numWrRetry                         0                       # Number of times write queue was full causing retry
system.mem_ctrls.readPktSize::0                     0                       # Read request sizes (log2)
system.mem_ctrls.readPktSize::1                     0                       # Read request sizes (log2)
system.mem_ctrls.readPktSize::2                     0                       # Read request sizes (log2)
system.mem_ctrls.readPktSize::3                     0                       # Read request sizes (log2)
system.mem_ctrls.readPktSize::4                     0                       # Read request sizes (log2)
system.mem_ctrls.readPktSize::5                     0                       # Read request sizes (log2)
[...]
system.mem_ctrls.dram.bw_write::.writebacks         3232                       # Write bandwidth from this memory (bytes/s)
system.mem_ctrls.dram.bw_write::total            3232                       # Write bandwidth from this memory (bytes/s)
system.mem_ctrls.dram.bw_total::.writebacks         3232                       # Total bandwidth to/from this memory (bytes/s)
system.mem_ctrls.dram.bw_total::.cpu.inst       700845                       # Total bandwidth to/from this memory (bytes/s)
system.mem_ctrls.dram.bw_total::.cpu.data      2260374                       # Total bandwidth to/from this memory (bytes/s)
system.mem_ctrls.dram.bw_total::total         2964452                       # Total bandwidth to/from this memory (bytes/s)
system.mem_ctrls.dram.readBursts                 5493                       # Number of DRAM read bursts
system.mem_ctrls.dram.writeBursts                   0                       # Number of DRAM write bursts
system.mem_ctrls.dram.perBankRdBursts::0          252                       # Per bank write bursts
system.mem_ctrls.dram.perBankRdBursts::1          273                       # Per bank write bursts
system.mem_ctrls.dram.perBankRdBursts::2          243                       # Per bank write bursts
system.mem_ctrls.dram.perBankRdBursts::3          403                       # Per bank write bursts
system.mem_ctrls.dram.perBankRdBursts::4          417                       # Per bank write bursts
system.mem_ctrls.dram.perBankRdBursts::5          373                       # Per bank write bursts
system.mem_ctrls.dram.perBankRdBursts::6          377                       # Per bank write bursts
system.mem_ctrls.dram.perBankRdBursts::7          401                       # Per bank write bursts
system.mem_ctrls.dram.perBankRdBursts::8          359                       # Per bank write bursts
system.mem_ctrls.dram.perBankRdBursts::9          293                       # Per bank write bursts
system.mem_ctrls.dram.perBankRdBursts::10          427                       # Per bank write bursts
system.mem_ctrls.dram.perBankRdBursts::11          288                       # Per bank write bursts
system.mem_ctrls.dram.perBankRdBursts::12          311                       # Per bank write bursts
system.mem_ctrls.dram.perBankRdBursts::13          339                       # Per bank write bursts
system.mem_ctrls.dram.perBankRdBursts::14          400                       # Per bank write bursts
system.mem_ctrls.dram.perBankRdBursts::15          337                       # Per bank write bursts
system.mem_ctrls.dram.perBankWrBursts::0            0                       # Per bank write bursts
system.mem_ctrls.dram.perBankWrBursts::1            0                       # Per bank write bursts
system.mem_ctrls.dram.perBankWrBursts::2            0                       # Per bank write bursts
system.mem_ctrls.dram.perBankWrBursts::3            0                       # Per bank write bursts
system.mem_ctrls.dram.perBankWrBursts::4            0                       # Per bank write bursts
system.mem_ctrls.dram.perBankWrBursts::5            0                       # Per bank write bursts
system.mem_ctrls.dram.perBankWrBursts::6            0                       # Per bank write bursts
system.mem_ctrls.dram.perBankWrBursts::7            0                       # Per bank write bursts
system.mem_ctrls.dram.perBankWrBursts::8            0                       # Per bank write bursts
system.mem_ctrls.dram.perBankWrBursts::9            0                       # Per bank write bursts
system.mem_ctrls.dram.perBankWrBursts::10            0                       # Per bank write bursts
system.mem_ctrls.dram.perBankWrBursts::11            0                       # Per bank write bursts
system.mem_ctrls.dram.perBankWrBursts::12            0                       # Per bank write bursts
system.mem_ctrls.dram.perBankWrBursts::13            0                       # Per bank write bursts
system.mem_ctrls.dram.perBankWrBursts::14            0                       # Per bank write bursts
system.mem_ctrls.dram.perBankWrBursts::15            0                       # Per bank write bursts
system.mem_ctrls.dram.totQLat                44688500                       # Total ticks spent queuing
system.mem_ctrls.dram.totBusLat              27465000                       # Total ticks spent in databus transfers
system.mem_ctrls.dram.totMemAccLat          147682250                       # Total ticks spent from burst creation until serviced by the DRAM
system.mem_ctrls.dram.avgQLat                 8135.54                       # Average queueing delay per DRAM burst
system.mem_ctrls.dram.avgBusLat               5000.00                       # Average bus latency per DRAM burst
system.mem_ctrls.dram.avgMemAccLat           26885.54                       # Average memory access latency per DRAM burst
system.mem_ctrls.dram.readRowHits                3950                       # Number of row buffer hits during reads
system.mem_ctrls.dram.writeRowHits                  0                       # Number of row buffer hits during writes
system.mem_ctrls.dram.readRowHitRate            71.91                       # Row buffer hit rate for reads
system.mem_ctrls.dram.writeRowHitRate             nan                       # Row buffer hit rate for writes
system.mem_ctrls.dram.bytesPerActivate::samples         1543                       # Bytes accessed per row activation
system.mem_ctrls.dram.bytesPerActivate::mean   227.836682                       # Bytes accessed per row activation
system.mem_ctrls.dram.bytesPerActivate::gmean   148.588869                       # Bytes accessed per row activation
system.mem_ctrls.dram.bytesPerActivate::stdev   261.686289                       # Bytes accessed per row activation
system.mem_ctrls.dram.bytesPerActivate::0-127          559     36.23%     36.23% # Bytes accessed per row activation
system.mem_ctrls.dram.bytesPerActivate::128-255          575     37.27%     73.49% # Bytes accessed per row activation
system.mem_ctrls.dram.bytesPerActivate::256-383          175     11.34%     84.83% # Bytes accessed per row activation
system.mem_ctrls.dram.bytesPerActivate::384-511           47      3.05%     87.88% # Bytes accessed per row activation
system.mem_ctrls.dram.bytesPerActivate::512-639           29      1.88%     89.76% # Bytes accessed per row activation
system.mem_ctrls.dram.bytesPerActivate::640-767           24      1.56%     91.32% # Bytes accessed per row activation
system.mem_ctrls.dram.bytesPerActivate::768-895           20      1.30%     92.61% # Bytes accessed per row activation
system.mem_ctrls.dram.bytesPerActivate::896-1023           11      0.71%     93.32% # Bytes accessed per row activation
system.mem_ctrls.dram.bytesPerActivate::1024-1151          103      6.68%    100.00% # Bytes accessed per row activation
system.mem_ctrls.dram.bytesPerActivate::total         1543                       # Bytes accessed per row activation
system.mem_ctrls.dram.bytesRead                351552                       # Total number of bytes read from DRAM
system.mem_ctrls.dram.bytesWritten                  0                       # Total number of bytes written to DRAM
system.mem_ctrls.dram.avgRdBW                2.959065                       # Average DRAM read bandwidth in MiBytes/s
system.mem_ctrls.dram.avgWrBW                       0                       # Average DRAM write bandwidth in MiBytes/s
system.mem_ctrls.dram.peakBW                 12800.00                       # Theoretical peak bandwidth in MiByte/s
system.mem_ctrls.dram.busUtil                    0.02                       # Data bus utilization in percentage
system.mem_ctrls.dram.busUtilRead                0.02                       # Data bus utilization in percentage for reads
system.mem_ctrls.dram.busUtilWrite               0.00                       # Data bus utilization in percentage for writes
system.mem_ctrls.dram.pageHitRate               71.91                       # Row buffer hit rate, read and write combined
system.mem_ctrls.dram.power_state.pwrStateResidencyTicks::UNDEFINED 118805110000                       # Cumulative time (in ticks) in various power states
system.mem_ctrls.dram.rank0.actEnergy         5747700                       # Energy for activate commands per rank (pJ)
system.mem_ctrls.dram.rank0.preEnergy         3054975                       # Energy for precharge commands per rank (pJ)
system.mem_ctrls.dram.rank0.readEnergy       19556460                       # Energy for read commands per rank (pJ)
system.mem_ctrls.dram.rank0.writeEnergy             0                       # Energy for write commands per rank (pJ)
system.mem_ctrls.dram.rank0.refreshEnergy 9378177120.000002                       # Energy for refresh commands per rank (pJ)
system.mem_ctrls.dram.rank0.actBackEnergy   2793267330                       # Energy for active background per rank (pJ)
system.mem_ctrls.dram.rank0.preBackEnergy  43268937120                       # Energy for precharge background per rank (pJ)
system.mem_ctrls.dram.rank0.actPowerDownEnergy            0                       # Energy for active power-down per rank (pJ)
system.mem_ctrls.dram.rank0.prePowerDownEnergy            0                       # Energy for precharge power-down per rank (pJ)
system.mem_ctrls.dram.rank0.selfRefreshEnergy            0                       # Energy for self refresh per rank (pJ)
system.mem_ctrls.dram.rank0.totalEnergy   55468740705                       # Total energy per rank (pJ)
system.mem_ctrls.dram.rank0.averagePower   466.888509                       # Core power per rank (mW)
system.mem_ctrls.dram.rank0.totalIdleTime            0                       # Total Idle time Per DRAM Rank
system.mem_ctrls.dram.rank0.pwrStateTime::IDLE 112463180750                       # Time in different power states
system.mem_ctrls.dram.rank0.pwrStateTime::REF   3967080000                       # Time in different power states
system.mem_ctrls.dram.rank0.pwrStateTime::SREF            0                       # Time in different power states
system.mem_ctrls.dram.rank0.pwrStateTime::PRE_PDN            0                       # Time in different power states
system.mem_ctrls.dram.rank0.pwrStateTime::ACT   2374849250                       # Time in different power states
system.mem_ctrls.dram.rank0.pwrStateTime::ACT_PDN            0                       # Time in different power states
system.mem_ctrls.dram.rank1.actEnergy         5269320                       # Energy for activate commands per rank (pJ)
system.mem_ctrls.dram.rank1.preEnergy         2800710                       # Energy for precharge commands per rank (pJ)
system.mem_ctrls.dram.rank1.readEnergy       19663560                       # Energy for read commands per rank (pJ)
system.mem_ctrls.dram.rank1.writeEnergy             0                       # Energy for write commands per rank (pJ)
system.mem_ctrls.dram.rank1.refreshEnergy 9378177120.000002                       # Energy for refresh commands per rank (pJ)
system.mem_ctrls.dram.rank1.actBackEnergy   2712722340                       # Energy for active background per rank (pJ)
system.mem_ctrls.dram.rank1.preBackEnergy  43336764480                       # Energy for precharge background per rank (pJ)
system.mem_ctrls.dram.rank1.actPowerDownEnergy            0                       # Energy for active power-down per rank (pJ)
system.mem_ctrls.dram.rank1.prePowerDownEnergy            0                       # Energy for precharge power-down per rank (pJ)
system.mem_ctrls.dram.rank1.selfRefreshEnergy            0                       # Energy for self refresh per rank (pJ)
system.mem_ctrls.dram.rank1.totalEnergy   55455397530                       # Total energy per rank (pJ)
system.mem_ctrls.dram.rank1.averagePower   466.776198                       # Core power per rank (mW)
system.mem_ctrls.dram.rank1.totalIdleTime            0                       # Total Idle time Per DRAM Rank
system.mem_ctrls.dram.rank1.pwrStateTime::IDLE 112640217500                       # Time in different power states
system.mem_ctrls.dram.rank1.pwrStateTime::REF   3967080000                       # Time in different power states
system.mem_ctrls.dram.rank1.pwrStateTime::SREF            0                       # Time in different power states
system.mem_ctrls.dram.rank1.pwrStateTime::PRE_PDN            0                       # Time in different power states
system.mem_ctrls.dram.rank1.pwrStateTime::ACT   2197812500                       # Time in different power states
system.mem_ctrls.dram.rank1.pwrStateTime::ACT_PDN            0                       # Time in different power states
system.mem_ctrls.power_state.pwrStateResidencyTicks::UNDEFINED 118805110000                       # Cumulative time (in ticks) in various power states
system.membus.trans_dist::ReadResp               1831                       # Transaction distribution
system.membus.trans_dist::WritebackDirty            6                       # Transaction distribution
system.membus.trans_dist::CleanEvict               80                       # Transaction distribution
system.membus.trans_dist::ReadExReq              3666                       # Transaction distribution
system.membus.trans_dist::ReadExResp             3666                       # Transaction distribution
system.membus.trans_dist::ReadSharedReq          1831                       # Transaction distribution
system.membus.pkt_count_system.l2.mem_side_port::system.mem_ctrls.port        11080                       # Packet count per connected requestor and responder (bytes)
system.membus.pkt_count::total                  11080                       # Packet count per connected requestor and responder (bytes)
system.membus.pkt_size_system.l2.mem_side_port::system.mem_ctrls.port       352192                       # Cumulative packet size per connected requestor and responder (bytes)
system.membus.pkt_size::total                  352192                       # Cumulative packet size per connected requestor and responder (bytes)
system.membus.snoops                                0                       # Total snoops (count)
system.membus.snoopTraffic                          0                       # Total snoop traffic (bytes)
system.membus.snoop_fanout::samples              5497                       # Request fanout histogram
system.membus.snoop_fanout::mean                    0                       # Request fanout histogram
system.membus.snoop_fanout::stdev                   0                       # Request fanout histogram
system.membus.snoop_fanout::underflows              0      0.00%      0.00% # Request fanout histogram
system.membus.snoop_fanout::0                    5497    100.00%    100.00% # Request fanout histogram
system.membus.snoop_fanout::1                       0      0.00%    100.00% # Request fanout histogram
system.membus.snoop_fanout::overflows               0      0.00%    100.00% # Request fanout histogram
system.membus.snoop_fanout::min_value               0                       # Request fanout histogram
system.membus.snoop_fanout::max_value               0                       # Request fanout histogram
system.membus.snoop_fanout::total                5497                       # Request fanout histogram
system.membus.power_state.pwrStateResidencyTicks::UNDEFINED 118805110000                       # Cumulative time (in ticks) in various power states
system.membus.reqLayer0.occupancy             5607000                       # Layer occupancy (ticks)
system.membus.reqLayer0.utilization               0.0                       # Layer utilization (%)
system.membus.respLayer1.occupancy           29232750                       # Layer occupancy (ticks)
system.membus.respLayer1.utilization              0.0                       # Layer utilization (%)
system.tol2bus.trans_dist::ReadResp             28315                       # Transaction distribution
system.tol2bus.trans_dist::WritebackDirty        85969                       # Transaction distribution
system.tol2bus.trans_dist::WritebackClean         6183                       # Transaction distribution
system.tol2bus.trans_dist::CleanEvict            2713                       # Transaction distribution
system.tol2bus.trans_dist::ReadExReq            67619                       # Transaction distribution
system.tol2bus.trans_dist::ReadExResp           67619                       # Transaction distribution
system.tol2bus.trans_dist::ReadCleanReq          6998                       # Transaction distribution
system.tol2bus.trans_dist::ReadSharedReq        21317                       # Transaction distribution
system.tol2bus.pkt_count_system.cpu.icache.mem_side_port::system.l2.cpu_side_port        20179                       # Packet count per connected requestor and responder (bytes)
system.tol2bus.pkt_count_system.cpu.dcache.mem_side_port::system.l2.cpu_side_port       266296                       # Packet count per connected requestor and responder (bytes)
system.tol2bus.pkt_count::total                286475                       # Packet count per connected requestor and responder (bytes)
system.tol2bus.pkt_size_system.cpu.icache.mem_side_port::system.l2.cpu_side_port       843584                       # Cumulative packet size per connected requestor and responder (bytes)
system.tol2bus.pkt_size_system.cpu.dcache.mem_side_port::system.l2.cpu_side_port     11193536                       # Cumulative packet size per connected requestor and responder (bytes)
system.tol2bus.pkt_size::total               12037120                       # Cumulative packet size per connected requestor and responder (bytes)
system.tol2bus.snoops                             258                       # Total snoops (count)
system.tol2bus.snoopTraffic                       384                       # Total snoop traffic (bytes)
system.tol2bus.snoop_fanout::samples            96192                       # Request fanout histogram
system.tol2bus.snoop_fanout::mean            0.020449                       # Request fanout histogram
system.tol2bus.snoop_fanout::stdev           0.141603                       # Request fanout histogram
system.tol2bus.snoop_fanout::underflows             0      0.00%      0.00% # Request fanout histogram
system.tol2bus.snoop_fanout::0                  94226     97.96%     97.96% # Request fanout histogram
system.tol2bus.snoop_fanout::1                   1965      2.04%    100.00% # Request fanout histogram
system.tol2bus.snoop_fanout::2                      1      0.00%    100.00% # Request fanout histogram
system.tol2bus.snoop_fanout::overflows              0      0.00%    100.00% # Request fanout histogram
system.tol2bus.snoop_fanout::min_value              0                       # Request fanout histogram
system.tol2bus.snoop_fanout::max_value              2                       # Request fanout histogram
system.tol2bus.snoop_fanout::total              96192                       # Request fanout histogram
system.tol2bus.power_state.pwrStateResidencyTicks::UNDEFINED 118805110000                       # Cumulative time (in ticks) in various power states
system.tol2bus.reqLayer0.occupancy          374833000                       # Layer occupancy (ticks)
system.tol2bus.reqLayer0.utilization              0.3                       # Layer utilization (%)
system.tol2bus.respLayer0.occupancy          20995998                       # Layer occupancy (ticks)
system.tol2bus.respLayer0.utilization             0.0                       # Layer utilization (%)
system.tol2bus.respLayer1.occupancy         266813994                       # Layer occupancy (ticks)
system.tol2bus.respLayer1.utilization             0.2                       # Layer utilization (%)
system.voltage_domain.voltage                       1                       # Voltage in Volts

---------- End Simulation Statistics   ----------
