
---------- Begin Simulation Statistics ----------
final_tick                               115754562000                       # Number of ticks from beginning of simulation (restored from checkpoints and never reset)
host_inst_rate                                 394503                       # Simulator instruction rate (inst/s)
host_mem_usage                                 660092                       # Number of bytes of host memory used
host_op_rate                                   431712                       # Simulator op (including micro ops) rate (op/s)
host_seconds                                   253.48                       # Real time elapsed on the host
host_tick_rate                              456655125                       # Simulator tick rate (ticks/s)
sim_freq                                 1000000000000                       # Frequency of simulated ticks
sim_insts                                   100000000                       # Number of instructions simulated
sim_ops                                     109431833                       # Number of ops (including micro ops) simulated
sim_seconds                                  0.115755                       # Number of seconds simulated
sim_ticks                                115754562000                       # Number of ticks simulated
system.cpu.committedInsts                   100000000                       # Number of instructions committed
system.cpu.committedOps                     109431833                       # Number of ops (including micro ops) committed
system.cpu.cpi                               1.157546                       # CPI: cycles per instruction
system.cpu.discardedOps                        729866                       # Number of ops (including micro ops) which were discarded before commit
system.cpu.idleCycles                         4909006                       # Total number of cycles that the object has spent stopped
system.cpu.ipc                               0.863897                       # IPC: instructions per cycle
system.cpu.numCycles                        115754562                       # number of cpu cycles simulated
system.cpu.numFetchSuspends                         0                       # Number of times Execute suspended instruction fetching
system.cpu.numWorkItemsCompleted                    0                       # number of work items this cpu completed
system.cpu.numWorkItemsStarted                      0                       # number of work items this cpu started
system.cpu.op_class_0::No_OpClass                   0      0.00%      0.00% # Class of committed instruction
system.cpu.op_class_0::IntAlu                72954902     66.67%     66.67% # Class of committed instruction
system.cpu.op_class_0::IntMult                 568365      0.52%     67.19% # Class of committed instruction
system.cpu.op_class_0::IntDiv                       0      0.00%     67.19% # Class of committed instruction
system.cpu.op_class_0::FloatAdd                     0      0.00%     67.19% # Class of committed instruction
system.cpu.op_class_0::FloatCmp                     0      0.00%     67.19% # Class of committed instruction
system.cpu.op_class_0::FloatCvt                     0      0.00%     67.19% # Class of committed instruction
system.cpu.op_class_0::FloatMult                    0      0.00%     67.19% # Class of committed instruction
system.cpu.op_class_0::FloatMultAcc                 0      0.00%     67.19% # Class of committed instruction
system.cpu.op_class_0::FloatDiv                     0      0.00%     67.19% # Class of committed instruction
system.cpu.op_class_0::FloatMisc                    0      0.00%     67.19% # Class of committed instruction
system.cpu.op_class_0::FloatSqrt                    0      0.00%     67.19% # Class of committed instruction
system.cpu.op_class_0::SimdAdd                 241244      0.22%     67.41% # Class of committed instruction
system.cpu.op_class_0::SimdAddAcc                   0      0.00%     67.41% # Class of committed instruction
system.cpu.op_class_0::SimdAlu                 154714      0.14%     67.55% # Class of committed instruction
system.cpu.op_class_0::SimdCmp                 120622      0.11%     67.66% # Class of committed instruction
system.cpu.op_class_0::SimdCvt                      0      0.00%     67.66% # Class of committed instruction
system.cpu.op_class_0::SimdMisc                 44543      0.04%     67.70% # Class of committed instruction
system.cpu.op_class_0::SimdMult                     0      0.00%     67.70% # Class of committed instruction
system.cpu.op_class_0::SimdMultAcc                  0      0.00%     67.70% # Class of committed instruction
system.cpu.op_class_0::SimdShift                    0      0.00%     67.70% # Class of committed instruction
system.cpu.op_class_0::SimdShiftAcc                 0      0.00%     67.70% # Class of committed instruction
system.cpu.op_class_0::SimdDiv                      0      0.00%     67.70% # Class of committed instruction
system.cpu.op_class_0::SimdSqrt                     0      0.00%     67.70% # Class of committed instruction
system.cpu.op_class_0::SimdFloatAdd                 0      0.00%     67.70% # Class of committed instruction
system.cpu.op_class_0::SimdFloatAlu                 0      0.00%     67.70% # Class of committed instruction
system.cpu.op_class_0::SimdFloatCmp                 0      0.00%     67.70% # Class of committed instruction
system.cpu.op_class_0::SimdFloatCvt                 0      0.00%     67.70% # Class of committed instruction
system.cpu.op_class_0::SimdFloatDiv                 0      0.00%     67.70% # Class of committed instruction
system.cpu.op_class_0::SimdFloatMisc           166460      0.15%     67.85% # Class of committed instruction
system.cpu.op_class_0::SimdFloatMult                0      0.00%     67.85% # Class of committed instruction
system.cpu.op_class_0::SimdFloatMultAcc             0      0.00%     67.85% # Class of committed instruction
system.cpu.op_class_0::SimdFloatSqrt                0      0.00%     67.85% # Class of committed instruction
system.cpu.op_class_0::SimdReduceAdd                0      0.00%     67.85% # Class of committed instruction
system.cpu.op_class_0::SimdReduceAlu                0      0.00%     67.85% # Class of committed instruction
system.cpu.op_class_0::SimdReduceCmp                0      0.00%     67.85% # Class of committed instruction
system.cpu.op_class_0::SimdFloatReduceAdd            0      0.00%     67.85% # Class of committed instruction
system.cpu.op_class_0::SimdFloatReduceCmp            0      0.00%     67.85% # Class of committed instruction
system.cpu.op_class_0::SimdAes                      0      0.00%     67.85% # Class of committed instruction
system.cpu.op_class_0::SimdAesMix                   0      0.00%     67.85% # Class of committed instruction
system.cpu.op_class_0::SimdSha1Hash                 0      0.00%     67.85% # Class of committed instruction
system.cpu.op_class_0::SimdSha1Hash2                0      0.00%     67.85% # Class of committed instruction
system.cpu.op_class_0::SimdSha256Hash               0      0.00%     67.85% # Class of committed instruction
system.cpu.op_class_0::SimdSha256Hash2              0      0.00%     67.85% # Class of committed instruction
system.cpu.op_class_0::SimdShaSigma2                0      0.00%     67.85% # Class of committed instruction
system.cpu.op_class_0::SimdShaSigma3                0      0.00%     67.85% # Class of committed instruction
system.cpu.op_class_0::SimdPredAlu                  0      0.00%     67.85% # Class of committed instruction
system.cpu.op_class_0::MemRead               20646336     18.87%     86.72% # Class of committed instruction
system.cpu.op_class_0::MemWrite              14534647     13.28%    100.00% # Class of committed instruction
system.cpu.op_class_0::FloatMemRead                 0      0.00%    100.00% # Class of committed instruction
system.cpu.op_class_0::FloatMemWrite                0      0.00%    100.00% # Class of committed instruction
system.cpu.op_class_0::IprAccess                    0      0.00%    100.00% # Class of committed instruction
system.cpu.op_class_0::InstPrefetch                 0      0.00%    100.00% # Class of committed instruction
system.cpu.op_class_0::total                109431833                       # Class of committed instruction
system.cpu.tickCycles                       110845556                       # Number of cycles that the object actually ticked
system.cpu.workload.numSyscalls                    86                       # Number of system calls
system.membus.snoop_filter.hit_multi_requests            0                       # Number of requests hitting in the snoop filter with multiple (>1) holders of the requested data.
system.membus.snoop_filter.hit_multi_snoops            0                       # Number of snoops hitting in the snoop filter with multiple (>1) holders of the requested data.
system.membus.snoop_filter.hit_single_requests        44976                       # Number of requests hitting in the snoop filter with a single holder of the requested data.
system.membus.snoop_filter.hit_single_snoops            0                       # Number of snoops hitting in the snoop filter with a single holder of the requested data.
system.membus.snoop_filter.tot_requests         94407                       # Total number of requests made to the snoop filter.
system.membus.snoop_filter.tot_snoops               0                       # Total number of snoops made to the snoop filter.
system.tol2bus.snoop_filter.hit_multi_requests         2522                       # Number of requests hitting in the snoop filter with multiple (>1) holders of the requested data.
system.tol2bus.snoop_filter.hit_multi_snoops           77                       # Number of snoops hitting in the snoop filter with multiple (>1) holders of the requested data.
system.tol2bus.snoop_filter.hit_single_requests       125282                       # Number of requests hitting in the snoop filter with a single holder of the requested data.
system.tol2bus.snoop_filter.hit_single_snoops         1367                       # Number of snoops hitting in the snoop filter with a single holder of the requested data.
system.tol2bus.snoop_filter.tot_requests       251511                       # Total number of requests made to the snoop filter.
system.tol2bus.snoop_filter.tot_snoops           1444                       # Total number of snoops made to the snoop filter.
system.clk_domain.clock                          1000                       # Clock period in ticks
system.cpu.branchPred.lookups                20634754                       # Number of BP lookups
system.cpu.branchPred.condPredicted          16527278                       # Number of conditional branches predicted
system.cpu.branchPred.condIncorrect            153917                       # Number of conditional branches incorrect
system.cpu.branchPred.BTBLookups              8837518                       # Number of BTB lookups
system.cpu.branchPred.BTBHits                 8746888                       # Number of BTB hits
system.cpu.branchPred.BTBHitPct             98.974486                       # BTB Hit Percentage
system.cpu.branchPred.RASUsed                 1050592                       # Number of times the RAS was used to get a target.
system.cpu.branchPred.RASIncorrect                312                       # Number of incorrect RAS predictions.
system.cpu.branchPred.indirectLookups          433995                       # Number of indirect predictor lookups.
system.cpu.branchPred.indirectHits             300036                       # Number of indirect target hits.
system.cpu.branchPred.indirectMisses           133959                       # Number of indirect misses.
system.cpu.branchPred.indirectMispredicted         1205                       # Number of mispredicted indirect branches.
system.cpu.dcache.demand_hits::.cpu.data     35580155                       # number of demand (read+write) hits
system.cpu.dcache.demand_hits::total         35580155                       # number of demand (read+write) hits
system.cpu.dcache.overall_hits::.cpu.data     35583438                       # number of overall hits
system.cpu.dcache.overall_hits::total        35583438                       # number of overall hits
system.cpu.dcache.demand_misses::.cpu.data       156992                       # number of demand (read+write) misses
system.cpu.dcache.demand_misses::total         156992                       # number of demand (read+write) misses
system.cpu.dcache.overall_misses::.cpu.data       157082                       # number of overall misses
system.cpu.dcache.overall_misses::total        157082                       # number of overall misses
system.cpu.dcache.demand_miss_latency::.cpu.data   9131185000                       # number of demand (read+write) miss cycles
system.cpu.dcache.demand_miss_latency::total   9131185000                       # number of demand (read+write) miss cycles
system.cpu.dcache.overall_miss_latency::.cpu.data   9131185000                       # number of overall miss cycles
system.cpu.dcache.overall_miss_latency::total   9131185000                       # number of overall miss cycles
system.cpu.dcache.demand_accesses::.cpu.data     35737147                       # number of demand (read+write) accesses
system.cpu.dcache.demand_accesses::total     35737147                       # number of demand (read+write) accesses
system.cpu.dcache.overall_accesses::.cpu.data     35740520                       # number of overall (read+write) accesses
system.cpu.dcache.overall_accesses::total     35740520                       # number of overall (read+write) accesses
system.cpu.dcache.demand_miss_rate::.cpu.data     0.004393                       # miss rate for demand accesses
system.cpu.dcache.demand_miss_rate::total     0.004393                       # miss rate for demand accesses
system.cpu.dcache.overall_miss_rate::.cpu.data     0.004395                       # miss rate for overall accesses
system.cpu.dcache.overall_miss_rate::total     0.004395                       # miss rate for overall accesses
system.cpu.dcache.demand_avg_miss_latency::.cpu.data 58163.377752                       # average overall miss latency
system.cpu.dcache.demand_avg_miss_latency::total 58163.377752                       # average overall miss latency
system.cpu.dcache.overall_avg_miss_latency::.cpu.data 58130.053093                       # average overall miss latency
system.cpu.dcache.overall_avg_miss_latency::total 58130.053093                       # average overall miss latency
system.cpu.dcache.blocked_cycles::no_mshrs            0                       # number of cycles access was blocked
system.cpu.dcache.blocked_cycles::no_targets            0                       # number of cycles access was blocked
system.cpu.dcache.blocked::no_mshrs                 0                       # number of cycles access was blocked
system.cpu.dcache.blocked::no_targets               0                       # number of cycles access was blocked
system.cpu.dcache.avg_blocked_cycles::no_mshrs          nan                       # average number of cycles each access was blocked
system.cpu.dcache.avg_blocked_cycles::no_targets          nan                       # average number of cycles each access was blocked
system.cpu.dcache.writebacks::.writebacks        72232                       # number of writebacks
system.cpu.dcache.writebacks::total             72232                       # number of writebacks
system.cpu.dcache.demand_mshr_hits::.cpu.data        32044                       # number of demand (read+write) MSHR hits
system.cpu.dcache.demand_mshr_hits::total        32044                       # number of demand (read+write) MSHR hits
system.cpu.dcache.overall_mshr_hits::.cpu.data        32044                       # number of overall MSHR hits
system.cpu.dcache.overall_mshr_hits::total        32044                       # number of overall MSHR hits
system.cpu.dcache.demand_mshr_misses::.cpu.data       124948                       # number of demand (read+write) MSHR misses
system.cpu.dcache.demand_mshr_misses::total       124948                       # number of demand (read+write) MSHR misses
system.cpu.dcache.overall_mshr_misses::.cpu.data       125032                       # number of overall MSHR misses
system.cpu.dcache.overall_mshr_misses::total       125032                       # number of overall MSHR misses
system.cpu.dcache.demand_mshr_miss_latency::.cpu.data   7185644000                       # number of demand (read+write) MSHR miss cycles
system.cpu.dcache.demand_mshr_miss_latency::total   7185644000                       # number of demand (read+write) MSHR miss cycles
system.cpu.dcache.overall_mshr_miss_latency::.cpu.data   7189834000                       # number of overall MSHR miss cycles
system.cpu.dcache.overall_mshr_miss_latency::total   7189834000                       # number of overall MSHR miss cycles
system.cpu.dcache.demand_mshr_miss_rate::.cpu.data     0.003496                       # mshr miss rate for demand accesses
system.cpu.dcache.demand_mshr_miss_rate::total     0.003496                       # mshr miss rate for demand accesses
system.cpu.dcache.overall_mshr_miss_rate::.cpu.data     0.003498                       # mshr miss rate for overall accesses
system.cpu.dcache.overall_mshr_miss_rate::total     0.003498                       # mshr miss rate for overall accesses
system.cpu.dcache.demand_avg_mshr_miss_latency::.cpu.data 57509.075776                       # average overall mshr miss latency
system.cpu.dcache.demand_avg_mshr_miss_latency::total 57509.075776                       # average overall mshr miss latency
system.cpu.dcache.overall_avg_mshr_miss_latency::.cpu.data 57503.950989                       # average overall mshr miss latency
system.cpu.dcache.overall_avg_mshr_miss_latency::total 57503.950989                       # average overall mshr miss latency
system.cpu.dcache.replacements                 124520                       # number of replacements
system.cpu.dcache.ReadReq_hits::.cpu.data     21396528                       # number of ReadReq hits
system.cpu.dcache.ReadReq_hits::total        21396528                       # number of ReadReq hits
system.cpu.dcache.ReadReq_misses::.cpu.data        86024                       # number of ReadReq misses
system.cpu.dcache.ReadReq_misses::total         86024                       # number of ReadReq misses
system.cpu.dcache.ReadReq_miss_latency::.cpu.data   3264763000                       # number of ReadReq miss cycles
system.cpu.dcache.ReadReq_miss_latency::total   3264763000                       # number of ReadReq miss cycles
system.cpu.dcache.ReadReq_accesses::.cpu.data     21482552                       # number of ReadReq accesses(hits+misses)
system.cpu.dcache.ReadReq_accesses::total     21482552                       # number of ReadReq accesses(hits+misses)
system.cpu.dcache.ReadReq_miss_rate::.cpu.data     0.004004                       # miss rate for ReadReq accesses
system.cpu.dcache.ReadReq_miss_rate::total     0.004004                       # miss rate for ReadReq accesses
system.cpu.dcache.ReadReq_avg_miss_latency::.cpu.data 37951.769274                       # average ReadReq miss latency
system.cpu.dcache.ReadReq_avg_miss_latency::total 37951.769274                       # average ReadReq miss latency
system.cpu.dcache.ReadReq_mshr_hits::.cpu.data         8869                       # number of ReadReq MSHR hits
system.cpu.dcache.ReadReq_mshr_hits::total         8869                       # number of ReadReq MSHR hits
system.cpu.dcache.ReadReq_mshr_misses::.cpu.data        77155                       # number of ReadReq MSHR misses
system.cpu.dcache.ReadReq_mshr_misses::total        77155                       # number of ReadReq MSHR misses
system.cpu.dcache.ReadReq_mshr_miss_latency::.cpu.data   2785087000                       # number of ReadReq MSHR miss cycles
system.cpu.dcache.ReadReq_mshr_miss_latency::total   2785087000                       # number of ReadReq MSHR miss cycles
system.cpu.dcache.ReadReq_mshr_miss_rate::.cpu.data     0.003592                       # mshr miss rate for ReadReq accesses
system.cpu.dcache.ReadReq_mshr_miss_rate::total     0.003592                       # mshr miss rate for ReadReq accesses
system.cpu.dcache.ReadReq_avg_mshr_miss_latency::.cpu.data 36097.297648                       # average ReadReq mshr miss latency
system.cpu.dcache.ReadReq_avg_mshr_miss_latency::total 36097.297648                       # average ReadReq mshr miss latency
system.cpu.dcache.WriteReq_hits::.cpu.data     14183627                       # number of WriteReq hits
system.cpu.dcache.WriteReq_hits::total       14183627                       # number of WriteReq hits
system.cpu.dcache.WriteReq_misses::.cpu.data        70968                       # number of WriteReq misses
system.cpu.dcache.WriteReq_misses::total        70968                       # number of WriteReq misses
system.cpu.dcache.WriteReq_miss_latency::.cpu.data   5866422000                       # number of WriteReq miss cycles
system.cpu.dcache.WriteReq_miss_latency::total   5866422000                       # number of WriteReq miss cycles
system.cpu.dcache.WriteReq_accesses::.cpu.data     14254595                       # number of WriteReq accesses(hits+misses)
system.cpu.dcache.WriteReq_accesses::total     14254595                       # number of WriteReq accesses(hits+misses)
system.cpu.dcache.WriteReq_miss_rate::.cpu.data     0.004979                       # miss rate for WriteReq accesses
system.cpu.dcache.WriteReq_miss_rate::total     0.004979                       # miss rate for WriteReq accesses
system.cpu.dcache.WriteReq_avg_miss_latency::.cpu.data 82662.918498                       # average WriteReq miss latency
system.cpu.dcache.WriteReq_avg_miss_latency::total 82662.918498                       # average WriteReq miss latency
system.cpu.dcache.WriteReq_mshr_hits::.cpu.data        23175                       # number of WriteReq MSHR hits
system.cpu.dcache.WriteReq_mshr_hits::total        23175                       # number of WriteReq MSHR hits
system.cpu.dcache.WriteReq_mshr_misses::.cpu.data        47793                       # number of WriteReq MSHR misses
system.cpu.dcache.WriteReq_mshr_misses::total        47793                       # number of WriteReq MSHR misses
system.cpu.dcache.WriteReq_mshr_miss_latency::.cpu.data   4400557000                       # number of WriteReq MSHR miss cycles
system.cpu.dcache.WriteReq_mshr_miss_latency::total   4400557000                       # number of WriteReq MSHR miss cycles
system.cpu.dcache.WriteReq_mshr_miss_rate::.cpu.data     0.003353                       # mshr miss rate for WriteReq accesses
system.cpu.dcache.WriteReq_mshr_miss_rate::total     0.003353                       # mshr miss rate for WriteReq accesses
system.cpu.dcache.WriteReq_avg_mshr_miss_latency::.cpu.data 92075.345762                       # average WriteReq mshr miss latency
system.cpu.dcache.WriteReq_avg_mshr_miss_latency::total 92075.345762                       # average WriteReq mshr miss latency
system.cpu.dcache.SoftPFReq_hits::.cpu.data         3283                       # number of SoftPFReq hits
system.cpu.dcache.SoftPFReq_hits::total          3283                       # number of SoftPFReq hits
system.cpu.dcache.SoftPFReq_misses::.cpu.data           90                       # number of SoftPFReq misses
system.cpu.dcache.SoftPFReq_misses::total           90                       # number of SoftPFReq misses
system.cpu.dcache.SoftPFReq_accesses::.cpu.data         3373                       # number of SoftPFReq accesses(hits+misses)
system.cpu.dcache.SoftPFReq_accesses::total         3373                       # number of SoftPFReq accesses(hits+misses)
system.cpu.dcache.SoftPFReq_miss_rate::.cpu.data     0.026682                       # miss rate for SoftPFReq accesses
system.cpu.dcache.SoftPFReq_miss_rate::total     0.026682                       # miss rate for SoftPFReq accesses
system.cpu.dcache.SoftPFReq_mshr_misses::.cpu.data           84                       # number of SoftPFReq MSHR misses
system.cpu.dcache.SoftPFReq_mshr_misses::total           84                       # number of SoftPFReq MSHR misses
system.cpu.dcache.SoftPFReq_mshr_miss_latency::.cpu.data      4190000                       # number of SoftPFReq MSHR miss cycles
system.cpu.dcache.SoftPFReq_mshr_miss_latency::total      4190000                       # number of SoftPFReq MSHR miss cycles
system.cpu.dcache.SoftPFReq_mshr_miss_rate::.cpu.data     0.024904                       # mshr miss rate for SoftPFReq accesses
system.cpu.dcache.SoftPFReq_mshr_miss_rate::total     0.024904                       # mshr miss rate for SoftPFReq accesses
system.cpu.dcache.SoftPFReq_avg_mshr_miss_latency::.cpu.data 49880.952381                       # average SoftPFReq mshr miss latency
system.cpu.dcache.SoftPFReq_avg_mshr_miss_latency::total 49880.952381                       # average SoftPFReq mshr miss latency
system.cpu.dcache.LoadLockedReq_hits::.cpu.data        89080                       # number of LoadLockedReq hits
system.cpu.dcache.LoadLockedReq_hits::total        89080                       # number of LoadLockedReq hits
system.cpu.dcache.LoadLockedReq_misses::.cpu.data            1                       # number of LoadLockedReq misses
system.cpu.dcache.LoadLockedReq_misses::total            1                       # number of LoadLockedReq misses
system.cpu.dcache.LoadLockedReq_miss_latency::.cpu.data        26000                       # number of LoadLockedReq miss cycles
system.cpu.dcache.LoadLockedReq_miss_latency::total        26000                       # number of LoadLockedReq miss cycles
system.cpu.dcache.LoadLockedReq_accesses::.cpu.data        89081                       # number of LoadLockedReq accesses(hits+misses)
system.cpu.dcache.LoadLockedReq_accesses::total        89081                       # number of LoadLockedReq accesses(hits+misses)
system.cpu.dcache.LoadLockedReq_miss_rate::.cpu.data     0.000011                       # miss rate for LoadLockedReq accesses
system.cpu.dcache.LoadLockedReq_miss_rate::total     0.000011                       # miss rate for LoadLockedReq accesses
system.cpu.dcache.LoadLockedReq_avg_miss_latency::.cpu.data        26000                       # average LoadLockedReq miss latency
system.cpu.dcache.LoadLockedReq_avg_miss_latency::total        26000                       # average LoadLockedReq miss latency
system.cpu.dcache.LoadLockedReq_mshr_misses::.cpu.data            1                       # number of LoadLockedReq MSHR misses
system.cpu.dcache.LoadLockedReq_mshr_misses::total            1                       # number of LoadLockedReq MSHR misses
system.cpu.dcache.LoadLockedReq_mshr_miss_latency::.cpu.data        24000                       # number of LoadLockedReq MSHR miss cycles
system.cpu.dcache.LoadLockedReq_mshr_miss_latency::total        24000                       # number of LoadLockedReq MSHR miss cycles
system.cpu.dcache.LoadLockedReq_mshr_miss_rate::.cpu.data     0.000011                       # mshr miss rate for LoadLockedReq accesses
system.cpu.dcache.LoadLockedReq_mshr_miss_rate::total     0.000011                       # mshr miss rate for LoadLockedReq accesses
system.cpu.dcache.LoadLockedReq_avg_mshr_miss_latency::.cpu.data        24000                       # average LoadLockedReq mshr miss latency
system.cpu.dcache.LoadLockedReq_avg_mshr_miss_latency::total        24000                       # average LoadLockedReq mshr miss latency
system.cpu.dcache.StoreCondReq_hits::.cpu.data        89080                       # number of StoreCondReq hits
system.cpu.dcache.StoreCondReq_hits::total        89080                       # number of StoreCondReq hits
system.cpu.dcache.StoreCondReq_accesses::.cpu.data        89080                       # number of StoreCondReq accesses(hits+misses)
system.cpu.dcache.StoreCondReq_accesses::total        89080                       # number of StoreCondReq accesses(hits+misses)
system.cpu.dcache.power_state.pwrStateResidencyTicks::UNDEFINED 115754562000                       # Cumulative time (in ticks) in various power states
system.cpu.dcache.tags.tagsinuse           511.085341                       # Cycle average of tags in use
system.cpu.dcache.tags.total_refs            35886630                       # Total number of references to valid blocks.
system.cpu.dcache.tags.sampled_refs            125032                       # Sample count of references to valid blocks.
system.cpu.dcache.tags.avg_refs            287.019563                       # Average number of references to valid blocks.
system.cpu.dcache.tags.warmup_cycle            240000                       # Cycle when the warmup percentage was hit.
system.cpu.dcache.tags.occ_blocks::.cpu.data   511.085341                       # Average occupied blocks per requestor
system.cpu.dcache.tags.occ_percent::.cpu.data     0.998214                       # Average percentage of cache occupancy
system.cpu.dcache.tags.occ_percent::total     0.998214                       # Average percentage of cache occupancy
system.cpu.dcache.tags.occ_task_id_blocks::1024          512                       # Occupied blocks per task id
system.cpu.dcache.tags.age_task_id_blocks_1024::0            3                       # Occupied blocks per task id
system.cpu.dcache.tags.age_task_id_blocks_1024::1           32                       # Occupied blocks per task id
system.cpu.dcache.tags.age_task_id_blocks_1024::2          250                       # Occupied blocks per task id
system.cpu.dcache.tags.age_task_id_blocks_1024::3          227                       # Occupied blocks per task id
system.cpu.dcache.tags.occ_task_id_percent::1024            1                       # Percentage of cache occupancy per task id
system.cpu.dcache.tags.tag_accesses          36043713                       # Number of tag accesses
system.cpu.dcache.tags.data_accesses         36043713                       # Number of data accesses
system.cpu.dcache.tags.power_state.pwrStateResidencyTicks::UNDEFINED 115754562000                       # Cumulative time (in ticks) in various power states
system.cpu.dtb.instHits                             0                       # ITB inst hits
system.cpu.dtb.instMisses                           0                       # ITB inst misses
system.cpu.dtb.readHits                             0                       # DTB read hits
system.cpu.dtb.readMisses                           0                       # DTB read misses
system.cpu.dtb.writeHits                            0                       # DTB write hits
system.cpu.dtb.writeMisses                          0                       # DTB write misses
system.cpu.dtb.inserts                              0                       # Number of times an entry is inserted into the TLB
system.cpu.dtb.flushTlb                             0                       # Number of times complete TLB was flushed
system.cpu.dtb.flushTlbMva                          0                       # Number of times TLB was flushed by MVA
system.cpu.dtb.flushTlbMvaAsid                      0                       # Number of times TLB was flushed by MVA & ASID
system.cpu.dtb.flushTlbAsid                         0                       # Number of times TLB was flushed by ASID
system.cpu.dtb.flushedEntries                       0                       # Number of entries that have been flushed from TLB
system.cpu.dtb.alignFaults                          0                       # Number of TLB faults due to alignment restrictions
system.cpu.dtb.prefetchFaults                       0                       # Number of TLB faults due to prefetch
system.cpu.dtb.domainFaults                         0                       # Number of TLB faults due to domain restrictions
system.cpu.dtb.permsFaults                          0                       # Number of TLB faults due to permissions restrictions
system.cpu.dtb.readAccesses                         0                       # DTB read accesses
system.cpu.dtb.writeAccesses                        0                       # DTB write accesses
system.cpu.dtb.instAccesses                         0                       # ITB inst accesses
system.cpu.dtb.hits                                 0                       # Total TLB (inst and data) hits
system.cpu.dtb.misses                               0                       # Total TLB (inst and data) misses
system.cpu.dtb.accesses                             0                       # Total TLB (inst and data) accesses
system.cpu.dtb.stage2_mmu.stage2_tlb.instHits            0                       # ITB inst hits
system.cpu.dtb.stage2_mmu.stage2_tlb.instMisses            0                       # ITB inst misses
system.cpu.dtb.stage2_mmu.stage2_tlb.readHits            0                       # DTB read hits
system.cpu.dtb.stage2_mmu.stage2_tlb.readMisses            0                       # DTB read misses
system.cpu.dtb.stage2_mmu.stage2_tlb.writeHits            0                       # DTB write hits
system.cpu.dtb.stage2_mmu.stage2_tlb.writeMisses            0                       # DTB write misses
system.cpu.dtb.stage2_mmu.stage2_tlb.inserts            0                       # Number of times an entry is inserted into the TLB
system.cpu.dtb.stage2_mmu.stage2_tlb.flushTlb            0                       # Number of times complete TLB was flushed
system.cpu.dtb.stage2_mmu.stage2_tlb.flushTlbMva            0                       # Number of times TLB was flushed by MVA
system.cpu.dtb.stage2_mmu.stage2_tlb.flushTlbMvaAsid            0                       # Number of times TLB was flushed by MVA & ASID
system.cpu.dtb.stage2_mmu.stage2_tlb.flushTlbAsid            0                       # Number of times TLB was flushed by ASID
system.cpu.dtb.stage2_mmu.stage2_tlb.flushedEntries            0                       # Number of entries that have been flushed from TLB
system.cpu.dtb.stage2_mmu.stage2_tlb.alignFaults            0                       # Number of TLB faults due to alignment restrictions
system.cpu.dtb.stage2_mmu.stage2_tlb.prefetchFaults            0                       # Number of TLB faults due to prefetch
system.cpu.dtb.stage2_mmu.stage2_tlb.domainFaults            0                       # Number of TLB faults due to domain restrictions
system.cpu.dtb.stage2_mmu.stage2_tlb.permsFaults            0                       # Number of TLB faults due to permissions restrictions
system.cpu.dtb.stage2_mmu.stage2_tlb.readAccesses            0                       # DTB read accesses
system.cpu.dtb.stage2_mmu.stage2_tlb.writeAccesses            0                       # DTB write accesses
system.cpu.dtb.stage2_mmu.stage2_tlb.instAccesses            0                       # ITB inst accesses
system.cpu.dtb.stage2_mmu.stage2_tlb.hits            0                       # Total TLB (inst and data) hits
system.cpu.dtb.stage2_mmu.stage2_tlb.misses            0                       # Total TLB (inst and data) misses
system.cpu.dtb.stage2_mmu.stage2_tlb.accesses            0                       # Total TLB (inst and data) accesses
system.cpu.dtb.stage2_mmu.stage2_tlb.walker.walks            0                       # Table walker walks requested
system.cpu.dtb.stage2_mmu.stage2_tlb.walker.requestOrigin_Requested::Data            0                       # Table walker requests started/completed, data/inst
system.cpu.dtb.stage2_mmu.stage2_tlb.walker.requestOrigin_Requested::Inst            0                       # Table walker requests started/completed, data/inst
system.cpu.dtb.stage2_mmu.stage2_tlb.walker.requestOrigin_Requested::total            0                       # Table walker requests started/completed, data/inst
system.cpu.dtb.stage2_mmu.stage2_tlb.walker.requestOrigin_Completed::Data            0                       # Table walker requests started/completed, data/inst
system.cpu.dtb.stage2_mmu.stage2_tlb.walker.requestOrigin_Completed::Inst            0                       # Table walker requests started/completed, data/inst
system.cpu.dtb.stage2_mmu.stage2_tlb.walker.requestOrigin_Completed::total            0                       # Table walker requests started/completed, data/inst
system.cpu.dtb.stage2_mmu.stage2_tlb.walker.requestOrigin::total            0                       # Table walker requests started/completed, data/inst
system.cpu.dtb.stage2_mmu.stage2_tlb.walker.power_state.pwrStateResidencyTicks::UNDEFINED 115754562000                       # Cumulative time (in ticks) in various power states
system.cpu.dtb.walker.walks                         0                       # Table walker walks requested
system.cpu.dtb.walker.requestOrigin_Requested::Data            0                       # Table walker requests started/completed, data/inst
system.cpu.dtb.walker.requestOrigin_Requested::Inst            0                       # Table walker requests started/completed, data/inst
system.cpu.dtb.walker.requestOrigin_Requested::total            0                       # Table walker requests started/completed, data/inst
system.cpu.dtb.walker.requestOrigin_Completed::Data            0                       # Table walker requests started/completed, data/inst
system.cpu.dtb.walker.requestOrigin_Completed::Inst            0                       # Table walker requests started/completed, data/inst
system.cpu.dtb.walker.requestOrigin_Completed::total            0                       # Table walker requests started/completed, data/inst
system.cpu.dtb.walker.requestOrigin::total            0                       # Table walker requests started/completed, data/inst
system.cpu.dtb.walker.power_state.pwrStateResidencyTicks::UNDEFINED 115754562000                       # Cumulative time (in ticks) in various power states
system.cpu.fetch2.intInstructions            49922342                       # Number of integer instructions successfully decoded
system.cpu.fetch2.fpInstructions                    0                       # Number of floating point instructions successfully decoded
system.cpu.fetch2.vecInstructions                   0                       # Number of SIMD instructions successfully decoded
system.cpu.fetch2.loadInstructions           17208385                       # Number of memory load instructions successfully decoded
system.cpu.fetch2.storeInstructions          10039459                       # Number of memory store instructions successfully decoded
system.cpu.fetch2.amoInstructions                   0                       # Number of memory atomic instructions successfully decoded
system.cpu.icache.demand_hits::.cpu.inst     28668116                       # number of demand (read+write) hits
system.cpu.icache.demand_hits::total         28668116                       # number of demand (read+write) hits
system.cpu.icache.overall_hits::.cpu.inst     28668116                       # number of overall hits
system.cpu.icache.overall_hits::total        28668116                       # number of overall hits
system.cpu.icache.demand_misses::.cpu.inst         1200                       # number of demand (read+write) misses
system.cpu.icache.demand_misses::total           1200                       # number of demand (read+write) misses
system.cpu.icache.overall_misses::.cpu.inst         1200                       # number of overall misses
system.cpu.icache.overall_misses::total          1200                       # number of overall misses
system.cpu.icache.demand_miss_latency::.cpu.inst     72389000                       # number of demand (read+write) miss cycles
system.cpu.icache.demand_miss_latency::total     72389000                       # number of demand (read+write) miss cycles
system.cpu.icache.overall_miss_latency::.cpu.inst     72389000                       # number of overall miss cycles
system.cpu.icache.overall_miss_latency::total     72389000                       # number of overall miss cycles
system.cpu.icache.demand_accesses::.cpu.inst     28669316                       # number of demand (read+write) accesses
system.cpu.icache.demand_accesses::total     28669316                       # number of demand (read+write) accesses
system.cpu.icache.overall_accesses::.cpu.inst     28669316                       # number of overall (read+write) accesses
system.cpu.icache.overall_accesses::total     28669316                       # number of overall (read+write) accesses
system.cpu.icache.demand_miss_rate::.cpu.inst     0.000042                       # miss rate for demand accesses
system.cpu.icache.demand_miss_rate::total     0.000042                       # miss rate for demand accesses
system.cpu.icache.overall_miss_rate::.cpu.inst     0.000042                       # miss rate for overall accesses
system.cpu.icache.overall_miss_rate::total     0.000042                       # miss rate for overall accesses
system.cpu.icache.demand_avg_miss_latency::.cpu.inst 60324.166667                       # average overall miss latency
system.cpu.icache.demand_avg_miss_latency::total 60324.166667                       # average overall miss latency
system.cpu.icache.overall_avg_miss_latency::.cpu.inst 60324.166667                       # average overall miss latency
system.cpu.icache.overall_avg_miss_latency::total 60324.166667                       # average overall miss latency
system.cpu.icache.blocked_cycles::no_mshrs            0                       # number of cycles access was blocked
system.cpu.icache.blocked_cycles::no_targets            0                       # number of cycles access was blocked
system.cpu.icache.blocked::no_mshrs                 0                       # number of cycles access was blocked
system.cpu.icache.blocked::no_targets               0                       # number of cycles access was blocked
system.cpu.icache.avg_blocked_cycles::no_mshrs          nan                       # average number of cycles each access was blocked
system.cpu.icache.avg_blocked_cycles::no_targets          nan                       # average number of cycles each access was blocked
system.cpu.icache.writebacks::.writebacks          758                       # number of writebacks
system.cpu.icache.writebacks::total               758                       # number of writebacks
system.cpu.icache.demand_mshr_misses::.cpu.inst         1200                       # number of demand (read+write) MSHR misses
system.cpu.icache.demand_mshr_misses::total         1200                       # number of demand (read+write) MSHR misses
system.cpu.icache.overall_mshr_misses::.cpu.inst         1200                       # number of overall MSHR misses
system.cpu.icache.overall_mshr_misses::total         1200                       # number of overall MSHR misses
system.cpu.icache.demand_mshr_miss_latency::.cpu.inst     69989000                       # number of demand (read+write) MSHR miss cycles
system.cpu.icache.demand_mshr_miss_latency::total     69989000                       # number of demand (read+write) MSHR miss cycles
system.cpu.icache.overall_mshr_miss_latency::.cpu.inst     69989000                       # number of overall MSHR miss cycles
system.cpu.icache.overall_mshr_miss_latency::total     69989000                       # number of overall MSHR miss cycles
system.cpu.icache.demand_mshr_miss_rate::.cpu.inst     0.000042                       # mshr miss rate for demand accesses
system.cpu.icache.demand_mshr_miss_rate::total     0.000042                       # mshr miss rate for demand accesses
system.cpu.icache.overall_mshr_miss_rate::.cpu.inst     0.000042                       # mshr miss rate for overall accesses
system.cpu.icache.overall_mshr_miss_rate::total     0.000042                       # mshr miss rate for overall accesses
system.cpu.icache.demand_avg_mshr_miss_latency::.cpu.inst 58324.166667                       # average overall mshr miss latency
system.cpu.icache.demand_avg_mshr_miss_latency::total 58324.166667                       # average overall mshr miss latency
system.cpu.icache.overall_avg_mshr_miss_latency::.cpu.inst 58324.166667                       # average overall mshr miss latency
system.cpu.icache.overall_avg_mshr_miss_latency::total 58324.166667                       # average overall mshr miss latency
system.cpu.icache.replacements                    758                       # number of replacements
system.cpu.icache.ReadReq_hits::.cpu.inst     28668116                       # number of ReadReq hits
system.cpu.icache.ReadReq_hits::total        28668116                       # number of ReadReq hits
system.cpu.icache.ReadReq_misses::.cpu.inst         1200                       # number of ReadReq misses
system.cpu.icache.ReadReq_misses::total          1200                       # number of ReadReq misses
system.cpu.icache.ReadReq_miss_latency::.cpu.inst     72389000                       # number of ReadReq miss cycles
system.cpu.icache.ReadReq_miss_latency::total     72389000                       # number of ReadReq miss cycles
system.cpu.icache.ReadReq_accesses::.cpu.inst     28669316                       # number of ReadReq accesses(hits+misses)
system.cpu.icache.ReadReq_accesses::total     28669316                       # number of ReadReq accesses(hits+misses)
system.cpu.icache.ReadReq_miss_rate::.cpu.inst     0.000042                       # miss rate for ReadReq accesses
system.cpu.icache.ReadReq_miss_rate::total     0.000042                       # miss rate for ReadReq accesses
system.cpu.icache.ReadReq_avg_miss_latency::.cpu.inst 60324.166667                       # average ReadReq miss latency
system.cpu.icache.ReadReq_avg_miss_latency::total 60324.166667                       # average ReadReq miss latency
system.cpu.icache.ReadReq_mshr_misses::.cpu.inst         1200                       # number of ReadReq MSHR misses
system.cpu.icache.ReadReq_mshr_misses::total         1200                       # number of ReadReq MSHR misses
system.cpu.icache.ReadReq_mshr_miss_latency::.cpu.inst     69989000                       # number of ReadReq MSHR miss cycles
system.cpu.icache.ReadReq_mshr_miss_latency::total     69989000                       # number of ReadReq MSHR miss cycles
system.cpu.icache.ReadReq_mshr_miss_rate::.cpu.inst     0.000042                       # mshr miss rate for ReadReq accesses
system.cpu.icache.ReadReq_mshr_miss_rate::total     0.000042                       # mshr miss rate for ReadReq accesses
system.cpu.icache.ReadReq_avg_mshr_miss_latency::.cpu.inst 58324.166667                       # average ReadReq mshr miss latency
system.cpu.icache.ReadReq_avg_mshr_miss_latency::total 58324.166667                       # average ReadReq mshr miss latency
system.cpu.icache.power_state.pwrStateResidencyTicks::UNDEFINED 115754562000                       # Cumulative time (in ticks) in various power states
system.cpu.icache.tags.tagsinuse           441.579884                       # Cycle average of tags in use
system.cpu.icache.tags.total_refs            28669316                       # Total number of references to valid blocks.
system.cpu.icache.tags.sampled_refs              1200                       # Sample count of references to valid blocks.
system.cpu.icache.tags.avg_refs          23891.096667                       # Average number of references to valid blocks.
system.cpu.icache.tags.warmup_cycle            108000                       # Cycle when the warmup percentage was hit.
system.cpu.icache.tags.occ_blocks::.cpu.inst   441.579884                       # Average occupied blocks per requestor
system.cpu.icache.tags.occ_percent::.cpu.inst     0.431230                       # Average percentage of cache occupancy
system.cpu.icache.tags.occ_percent::total     0.431230                       # Average percentage of cache occupancy
system.cpu.icache.tags.occ_task_id_blocks::1024          442                       # Occupied blocks per task id
system.cpu.icache.tags.age_task_id_blocks_1024::3            5                       # Occupied blocks per task id
system.cpu.icache.tags.age_task_id_blocks_1024::4          437                       # Occupied blocks per task id
system.cpu.icache.tags.occ_task_id_percent::1024     0.431641                       # Percentage of cache occupancy per task id
system.cpu.icache.tags.tag_accesses          28670516                       # Number of tag accesses
system.cpu.icache.tags.data_accesses         28670516                       # Number of data accesses
system.cpu.icache.tags.power_state.pwrStateResidencyTicks::UNDEFINED 115754562000                       # Cumulative time (in ticks) in various power states
system.cpu.itb.instHits                             0                       # ITB inst hits
system.cpu.itb.instMisses                           0                       # ITB inst misses
system.cpu.itb.readHits                             0                       # DTB read hits
system.cpu.itb.readMisses                           0                       # DTB read misses
system.cpu.itb.writeHits                            0                       # DTB write hits
system.cpu.itb.writeMisses                          0                       # DTB write misses
system.cpu.itb.inserts                              0                       # Number of times an entry is inserted into the TLB
system.cpu.itb.flushTlb                             0                       # Number of times complete TLB was flushed
system.cpu.itb.flushTlbMva                          0                       # Number of times TLB was flushed by MVA
system.cpu.itb.flushTlbMvaAsid                      0                       # Number of times TLB was flushed by MVA & ASID
system.cpu.itb.flushTlbAsid                         0                       # Number of times TLB was flushed by ASID
system.cpu.itb.flushedEntries                       0                       # Number of entries that have been flushed from TLB
system.cpu.itb.alignFaults                          0                       # Number of TLB faults due to alignment restrictions
system.cpu.itb.prefetchFaults                       0                       # Number of TLB faults due to prefetch
system.cpu.itb.domainFaults                         0                       # Number of TLB faults due to domain restrictions
system.cpu.itb.permsFaults                          0                       # Number of TLB faults due to permissions restrictions
system.cpu.itb.readAccesses                         0                       # DTB read accesses
system.cpu.itb.writeAccesses                        0                       # DTB write accesses
system.cpu.itb.instAccesses                         0                       # ITB inst accesses
system.cpu.itb.hits                                 0                       # Total TLB (inst and data) hits
system.cpu.itb.misses                               0                       # Total TLB (inst and data) misses
system.cpu.itb.accesses                             0                       # Total TLB (inst and data) accesses
system.cpu.itb.stage2_mmu.stage2_tlb.instHits            0                       # ITB inst hits
system.cpu.itb.stage2_mmu.stage2_tlb.instMisses            0                       # ITB inst misses
system.cpu.itb.stage2_mmu.stage2_tlb.readHits            0                       # DTB read hits
system.cpu.itb.stage2_mmu.stage2_tlb.readMisses            0                       # DTB read misses
system.cpu.itb.stage2_mmu.stage2_tlb.writeHits            0                       # DTB write hits
system.cpu.itb.stage2_mmu.stage2_tlb.writeMisses            0                       # DTB write misses
system.cpu.itb.stage2_mmu.stage2_tlb.inserts            0                       # Number of times an entry is inserted into the TLB
system.cpu.itb.stage2_mmu.stage2_tlb.flushTlb            0                       # Number of times complete TLB was flushed
system.cpu.itb.stage2_mmu.stage2_tlb.flushTlbMva            0                       # Number of times TLB was flushed by MVA
system.cpu.itb.stage2_mmu.stage2_tlb.flushTlbMvaAsid            0                       # Number of times TLB was flushed by MVA & ASID
system.cpu.itb.stage2_mmu.stage2_tlb.flushTlbAsid            0                       # Number of times TLB was flushed by ASID
system.cpu.itb.stage2_mmu.stage2_tlb.flushedEntries            0                       # Number of entries that have been flushed from TLB
system.cpu.itb.stage2_mmu.stage2_tlb.alignFaults            0                       # Number of TLB faults due to alignment restrictions
system.cpu.itb.stage2_mmu.stage2_tlb.prefetchFaults            0                       # Number of TLB faults due to prefetch
system.cpu.itb.stage2_mmu.stage2_tlb.domainFaults            0                       # Number of TLB faults due to domain restrictions
system.cpu.itb.stage2_mmu.stage2_tlb.permsFaults            0                       # Number of TLB faults due to permissions restrictions
system.cpu.itb.stage2_mmu.stage2_tlb.readAccesses            0                       # DTB read accesses
system.cpu.itb.stage2_mmu.stage2_tlb.writeAccesses            0                       # DTB write accesses
system.cpu.itb.stage2_mmu.stage2_tlb.instAccesses            0                       # ITB inst accesses
system.cpu.itb.stage2_mmu.stage2_tlb.hits            0                       # Total TLB (inst and data) hits
system.cpu.itb.stage2_mmu.stage2_tlb.misses            0                       # Total TLB (inst and data) misses
system.cpu.itb.stage2_mmu.stage2_tlb.accesses            0                       # Total TLB (inst and data) accesses
system.cpu.itb.stage2_mmu.stage2_tlb.walker.walks            0                       # Table walker walks requested
system.cpu.itb.stage2_mmu.stage2_tlb.walker.requestOrigin_Requested::Data            0                       # Table walker requests started/completed, data/inst
system.cpu.itb.stage2_mmu.stage2_tlb.walker.requestOrigin_Requested::Inst            0                       # Table walker requests started/completed, data/inst
system.cpu.itb.stage2_mmu.stage2_tlb.walker.requestOrigin_Requested::total            0                       # Table walker requests started/completed, data/inst
system.cpu.itb.stage2_mmu.stage2_tlb.walker.requestOrigin_Completed::Data            0                       # Table walker requests started/completed, data/inst
system.cpu.itb.stage2_mmu.stage2_tlb.walker.requestOrigin_Completed::Inst            0                       # Table walker requests started/completed, data/inst
system.cpu.itb.stage2_mmu.stage2_tlb.walker.requestOrigin_Completed::total            0                       # Table walker requests started/completed, data/inst
system.cpu.itb.stage2_mmu.stage2_tlb.walker.requestOrigin::total            0                       # Table walker requests started/completed, data/inst
system.cpu.itb.stage2_mmu.stage2_tlb.walker.power_state.pwrStateResidencyTicks::UNDEFINED 115754562000                       # Cumulative time (in ticks) in various power states
system.cpu.itb.walker.walks                         0                       # Table walker walks requested
system.cpu.itb.walker.requestOrigin_Requested::Data            0                       # Table walker requests started/completed, data/inst
system.cpu.itb.walker.requestOrigin_Requested::Inst            0                       # Table walker requests started/completed, data/inst
system.cpu.itb.walker.requestOrigin_Requested::total            0                       # Table walker requests started/completed, data/inst
system.cpu.itb.walker.requestOrigin_Completed::Data            0                       # Table walker requests started/completed, data/inst
system.cpu.itb.walker.requestOrigin_Completed::Inst            0                       # Table walker requests started/completed, data/inst
system.cpu.itb.walker.requestOrigin_Completed::total            0                       # Table walker requests started/completed, data/inst
system.cpu.itb.walker.requestOrigin::total            0                       # Table walker requests started/completed, data/inst
system.cpu.itb.walker.power_state.pwrStateResidencyTicks::UNDEFINED 115754562000                       # Cumulative time (in ticks) in various power states
system.cpu.power_state.pwrStateResidencyTicks::ON 115754562000                       # Cumulative time (in ticks) in various power states
system.cpu.thread_0.numInsts                100000000                       # Number of Instructions committed
system.cpu.thread_0.numOps                  109431833                       # Number of Ops committed
system.cpu.thread_0.numMemRefs                      0                       # Number of Memory References
system.cpu_clk_domain.clock                      1000                       # Clock period in ticks
system.cpu_voltage_domain.voltage                   1                       # Voltage in Volts
system.l2.demand_hits::.cpu.inst                  662                       # number of demand (read+write) hits
system.l2.demand_hits::.cpu.data                76058                       # number of demand (read+write) hits
system.l2.demand_hits::total                    76720                       # number of demand (read+write) hits
system.l2.overall_hits::.cpu.inst                 662                       # number of overall hits
system.l2.overall_hits::.cpu.data               76058                       # number of overall hits
system.l2.overall_hits::total                   76720                       # number of overall hits
system.l2.demand_misses::.cpu.inst                538                       # number of demand (read+write) misses
system.l2.demand_misses::.cpu.data              48975                       # number of demand (read+write) misses
system.l2.demand_misses::total                  49513                       # number of demand (read+write) misses
system.l2.overall_misses::.cpu.inst               538                       # number of overall misses
system.l2.overall_misses::.cpu.data             48975                       # number of overall misses
system.l2.overall_misses::total                 49513                       # number of overall misses
system.l2.demand_miss_latency::.cpu.inst     52470000                       # number of demand (read+write) miss cycles
system.l2.demand_miss_latency::.cpu.data   5141985000                       # number of demand (read+write) miss cycles
system.l2.demand_miss_latency::total       5194455000                       # number of demand (read+write) miss cycles
system.l2.overall_miss_latency::.cpu.inst     52470000                       # number of overall miss cycles
system.l2.overall_miss_latency::.cpu.data   5141985000                       # number of overall miss cycles
system.l2.overall_miss_latency::total      5194455000                       # number of overall miss cycles
system.l2.demand_accesses::.cpu.inst             1200                       # number of demand (read+write) accesses
system.l2.demand_accesses::.cpu.data           125033                       # number of demand (read+write) accesses
system.l2.demand_accesses::total               126233                       # number of demand (read+write) accesses
system.l2.overall_accesses::.cpu.inst            1200                       # number of overall (read+write) accesses
system.l2.overall_accesses::.cpu.data          125033                       # number of overall (read+write) accesses
system.l2.overall_accesses::total              126233                       # number of overall (read+write) accesses
system.l2.demand_miss_rate::.cpu.inst        0.448333                       # miss rate for demand accesses
system.l2.demand_miss_rate::.cpu.data        0.391697                       # miss rate for demand accesses
system.l2.demand_miss_rate::total            0.392235                       # miss rate for demand accesses
system.l2.overall_miss_rate::.cpu.inst       0.448333                       # miss rate for overall accesses
system.l2.overall_miss_rate::.cpu.data       0.391697                       # miss rate for overall accesses
system.l2.overall_miss_rate::total           0.392235                       # miss rate for overall accesses
system.l2.demand_avg_miss_latency::.cpu.inst 97527.881041                       # average overall miss latency
system.l2.demand_avg_miss_latency::.cpu.data 104992.036753                       # average overall miss latency
system.l2.demand_avg_miss_latency::total 104910.932482                       # average overall miss latency
system.l2.overall_avg_miss_latency::.cpu.inst 97527.881041                       # average overall miss latency
system.l2.overall_avg_miss_latency::.cpu.data 104992.036753                       # average overall miss latency
system.l2.overall_avg_miss_latency::total 104910.932482                       # average overall miss latency
system.l2.blocked_cycles::no_mshrs                  0                       # number of cycles access was blocked
system.l2.blocked_cycles::no_targets                0                       # number of cycles access was blocked
system.l2.blocked::no_mshrs                         0                       # number of cycles access was blocked
system.l2.blocked::no_targets                       0                       # number of cycles access was blocked
system.l2.avg_blocked_cycles::no_mshrs            nan                       # average number of cycles each access was blocked
system.l2.avg_blocked_cycles::no_targets          nan                       # average number of cycles each access was blocked
system.l2.writebacks::.writebacks               43974                       # number of writebacks
system.l2.writebacks::total                     43974                       # number of writebacks
system.l2.demand_mshr_hits::.cpu.inst               1                       # number of demand (read+write) MSHR hits
system.l2.demand_mshr_hits::.cpu.data               5                       # number of demand (read+write) MSHR hits
system.l2.demand_mshr_hits::total                   6                       # number of demand (read+write) MSHR hits
system.l2.overall_mshr_hits::.cpu.inst              1                       # number of overall MSHR hits
system.l2.overall_mshr_hits::.cpu.data              5                       # number of overall MSHR hits
system.l2.overall_mshr_hits::total                  6                       # number of overall MSHR hits
system.l2.demand_mshr_misses::.cpu.inst           537                       # number of demand (read+write) MSHR misses
system.l2.demand_mshr_misses::.cpu.data         48970                       # number of demand (read+write) MSHR misses
system.l2.demand_mshr_misses::total             49507                       # number of demand (read+write) MSHR misses
system.l2.overall_mshr_misses::.cpu.inst          537                       # number of overall MSHR misses
system.l2.overall_mshr_misses::.cpu.data        48970                       # number of overall MSHR misses
system.l2.overall_mshr_misses::total            49507                       # number of overall MSHR misses
system.l2.demand_mshr_miss_latency::.cpu.inst     41650000                       # number of demand (read+write) MSHR miss cycles
system.l2.demand_mshr_miss_latency::.cpu.data   4162177000                       # number of demand (read+write) MSHR miss cycles
system.l2.demand_mshr_miss_latency::total   4203827000                       # number of demand (read+write) MSHR miss cycles
system.l2.overall_mshr_miss_latency::.cpu.inst     41650000                       # number of overall MSHR miss cycles
system.l2.overall_mshr_miss_latency::.cpu.data   4162177000                       # number of overall MSHR miss cycles
system.l2.overall_mshr_miss_latency::total   4203827000                       # number of overall MSHR miss cycles
system.l2.demand_mshr_miss_rate::.cpu.inst     0.447500                       # mshr miss rate for demand accesses
system.l2.demand_mshr_miss_rate::.cpu.data     0.391657                       # mshr miss rate for demand accesses
system.l2.demand_mshr_miss_rate::total       0.392187                       # mshr miss rate for demand accesses
system.l2.overall_mshr_miss_rate::.cpu.inst     0.447500                       # mshr miss rate for overall accesses
system.l2.overall_mshr_miss_rate::.cpu.data     0.391657                       # mshr miss rate for overall accesses
system.l2.overall_mshr_miss_rate::total      0.392187                       # mshr miss rate for overall accesses
system.l2.demand_avg_mshr_miss_latency::.cpu.inst 77560.521415                       # average overall mshr miss latency
system.l2.demand_avg_mshr_miss_latency::.cpu.data 84994.425158                       # average overall mshr miss latency
system.l2.demand_avg_mshr_miss_latency::total 84913.789969                       # average overall mshr miss latency
system.l2.overall_avg_mshr_miss_latency::.cpu.inst 77560.521415                       # average overall mshr miss latency
system.l2.overall_avg_mshr_miss_latency::.cpu.data 84994.425158                       # average overall mshr miss latency
system.l2.overall_avg_mshr_miss_latency::total 84913.789969                       # average overall mshr miss latency
system.l2.replacements                          46126                       # number of replacements
system.l2.WritebackDirty_hits::.writebacks        72232                       # number of WritebackDirty hits
system.l2.WritebackDirty_hits::total            72232                       # number of WritebackDirty hits
system.l2.WritebackDirty_accesses::.writebacks        72232                       # number of WritebackDirty accesses(hits+misses)
system.l2.WritebackDirty_accesses::total        72232                       # number of WritebackDirty accesses(hits+misses)
system.l2.WritebackClean_hits::.writebacks          755                       # number of WritebackClean hits
system.l2.WritebackClean_hits::total              755                       # number of WritebackClean hits
system.l2.WritebackClean_accesses::.writebacks          755                       # number of WritebackClean accesses(hits+misses)
system.l2.WritebackClean_accesses::total          755                       # number of WritebackClean accesses(hits+misses)
system.l2.CleanEvict_mshr_misses::.writebacks          219                       # number of CleanEvict MSHR misses
system.l2.CleanEvict_mshr_misses::total           219                       # number of CleanEvict MSHR misses
system.l2.CleanEvict_mshr_miss_rate::.writebacks          inf                       # mshr miss rate for CleanEvict accesses
system.l2.CleanEvict_mshr_miss_rate::total          inf                       # mshr miss rate for CleanEvict accesses
system.l2.ReadExReq_hits::.cpu.data              8980                       # number of ReadExReq hits
system.l2.ReadExReq_hits::total                  8980                       # number of ReadExReq hits
system.l2.ReadExReq_misses::.cpu.data           38813                       # number of ReadExReq misses
system.l2.ReadExReq_misses::total               38813                       # number of ReadExReq misses
system.l2.ReadExReq_miss_latency::.cpu.data   4035942000                       # number of ReadExReq miss cycles
system.l2.ReadExReq_miss_latency::total    4035942000                       # number of ReadExReq miss cycles
system.l2.ReadExReq_accesses::.cpu.data         47793                       # number of ReadExReq accesses(hits+misses)
system.l2.ReadExReq_accesses::total             47793                       # number of ReadExReq accesses(hits+misses)
system.l2.ReadExReq_miss_rate::.cpu.data     0.812106                       # miss rate for ReadExReq accesses
system.l2.ReadExReq_miss_rate::total         0.812106                       # miss rate for ReadExReq accesses
system.l2.ReadExReq_avg_miss_latency::.cpu.data 103984.283616                       # average ReadExReq miss latency
system.l2.ReadExReq_avg_miss_latency::total 103984.283616                       # average ReadExReq miss latency
system.l2.ReadExReq_mshr_misses::.cpu.data        38813                       # number of ReadExReq MSHR misses
system.l2.ReadExReq_mshr_misses::total          38813                       # number of ReadExReq MSHR misses
system.l2.ReadExReq_mshr_miss_latency::.cpu.data   3259682000                       # number of ReadExReq MSHR miss cycles
system.l2.ReadExReq_mshr_miss_latency::total   3259682000                       # number of ReadExReq MSHR miss cycles
system.l2.ReadExReq_mshr_miss_rate::.cpu.data     0.812106                       # mshr miss rate for ReadExReq accesses
system.l2.ReadExReq_mshr_miss_rate::total     0.812106                       # mshr miss rate for ReadExReq accesses
system.l2.ReadExReq_avg_mshr_miss_latency::.cpu.data 83984.283616                       # average ReadExReq mshr miss latency
system.l2.ReadExReq_avg_mshr_miss_latency::total 83984.283616                       # average ReadExReq mshr miss latency
system.l2.ReadCleanReq_hits::.cpu.inst            662                       # number of ReadCleanReq hits
system.l2.ReadCleanReq_hits::total                662                       # number of ReadCleanReq hits
system.l2.ReadCleanReq_misses::.cpu.inst          538                       # number of ReadCleanReq misses
system.l2.ReadCleanReq_misses::total              538                       # number of ReadCleanReq misses
system.l2.ReadCleanReq_miss_latency::.cpu.inst     52470000                       # number of ReadCleanReq miss cycles
system.l2.ReadCleanReq_miss_latency::total     52470000                       # number of ReadCleanReq miss cycles
system.l2.ReadCleanReq_accesses::.cpu.inst         1200                       # number of ReadCleanReq accesses(hits+misses)
system.l2.ReadCleanReq_accesses::total           1200                       # number of ReadCleanReq accesses(hits+misses)
system.l2.ReadCleanReq_miss_rate::.cpu.inst     0.448333                       # miss rate for ReadCleanReq accesses
system.l2.ReadCleanReq_miss_rate::total      0.448333                       # miss rate for ReadCleanReq accesses
system.l2.ReadCleanReq_avg_miss_latency::.cpu.inst 97527.881041                       # average ReadCleanReq miss latency
system.l2.ReadCleanReq_avg_miss_latency::total 97527.881041                       # average ReadCleanReq miss latency
system.l2.ReadCleanReq_mshr_hits::.cpu.inst            1                       # number of ReadCleanReq MSHR hits
system.l2.ReadCleanReq_mshr_hits::total             1                       # number of ReadCleanReq MSHR hits
system.l2.ReadCleanReq_mshr_misses::.cpu.inst          537                       # number of ReadCleanReq MSHR misses
system.l2.ReadCleanReq_mshr_misses::total          537                       # number of ReadCleanReq MSHR misses
system.l2.ReadCleanReq_mshr_miss_latency::.cpu.inst     41650000                       # number of ReadCleanReq MSHR miss cycles
system.l2.ReadCleanReq_mshr_miss_latency::total     41650000                       # number of ReadCleanReq MSHR miss cycles
system.l2.ReadCleanReq_mshr_miss_rate::.cpu.inst     0.447500                       # mshr miss rate for ReadCleanReq accesses
system.l2.ReadCleanReq_mshr_miss_rate::total     0.447500                       # mshr miss rate for ReadCleanReq accesses
system.l2.ReadCleanReq_avg_mshr_miss_latency::.cpu.inst 77560.521415                       # average ReadCleanReq mshr miss latency
system.l2.ReadCleanReq_avg_mshr_miss_latency::total 77560.521415                       # average ReadCleanReq mshr miss latency
system.l2.ReadSharedReq_hits::.cpu.data         67078                       # number of ReadSharedReq hits
system.l2.ReadSharedReq_hits::total             67078                       # number of ReadSharedReq hits
system.l2.ReadSharedReq_misses::.cpu.data        10162                       # number of ReadSharedReq misses
system.l2.ReadSharedReq_misses::total           10162                       # number of ReadSharedReq misses
system.l2.ReadSharedReq_miss_latency::.cpu.data   1106043000                       # number of ReadSharedReq miss cycles
system.l2.ReadSharedReq_miss_latency::total   1106043000                       # number of ReadSharedReq miss cycles
system.l2.ReadSharedReq_accesses::.cpu.data        77240                       # number of ReadSharedReq accesses(hits+misses)
system.l2.ReadSharedReq_accesses::total         77240                       # number of ReadSharedReq accesses(hits+misses)
system.l2.ReadSharedReq_miss_rate::.cpu.data     0.131564                       # miss rate for ReadSharedReq accesses
system.l2.ReadSharedReq_miss_rate::total     0.131564                       # miss rate for ReadSharedReq accesses
system.l2.ReadSharedReq_avg_miss_latency::.cpu.data 108841.074592                       # average ReadSharedReq miss latency
system.l2.ReadSharedReq_avg_miss_latency::total 108841.074592                       # average ReadSharedReq miss latency
system.l2.ReadSharedReq_mshr_hits::.cpu.data            5                       # number of ReadSharedReq MSHR hits
system.l2.ReadSharedReq_mshr_hits::total            5                       # number of ReadSharedReq MSHR hits
system.l2.ReadSharedReq_mshr_misses::.cpu.data        10157                       # number of ReadSharedReq MSHR misses
system.l2.ReadSharedReq_mshr_misses::total        10157                       # number of ReadSharedReq MSHR misses
system.l2.ReadSharedReq_mshr_miss_latency::.cpu.data    902495000                       # number of ReadSharedReq MSHR miss cycles
system.l2.ReadSharedReq_mshr_miss_latency::total    902495000                       # number of ReadSharedReq MSHR miss cycles
system.l2.ReadSharedReq_mshr_miss_rate::.cpu.data     0.131499                       # mshr miss rate for ReadSharedReq accesses
system.l2.ReadSharedReq_mshr_miss_rate::total     0.131499                       # mshr miss rate for ReadSharedReq accesses
system.l2.ReadSharedReq_avg_mshr_miss_latency::.cpu.data 88854.484592                       # average ReadSharedReq mshr miss latency
system.l2.ReadSharedReq_avg_mshr_miss_latency::total 88854.484592                       # average ReadSharedReq mshr miss latency
system.l2.power_state.pwrStateResidencyTicks::UNDEFINED 115754562000                       # Cumulative time (in ticks) in various power states
system.l2.tags.tagsinuse                  4053.077402                       # Cycle average of tags in use
system.l2.tags.total_refs                      248764                       # Total number of references to valid blocks.
system.l2.tags.sampled_refs                     50222                       # Sample count of references to valid blocks.
system.l2.tags.avg_refs                      4.953287                       # Average number of references to valid blocks.
system.l2.tags.warmup_cycle                     87000                       # Cycle when the warmup percentage was hit.
system.l2.tags.occ_blocks::.writebacks      48.429290                       # Average occupied blocks per requestor
system.l2.tags.occ_blocks::.cpu.inst        14.388946                       # Average occupied blocks per requestor
system.l2.tags.occ_blocks::.cpu.data      3990.259166                       # Average occupied blocks per requestor
system.l2.tags.occ_percent::.writebacks      0.011824                       # Average percentage of cache occupancy
system.l2.tags.occ_percent::.cpu.inst        0.003513                       # Average percentage of cache occupancy
system.l2.tags.occ_percent::.cpu.data        0.974184                       # Average percentage of cache occupancy
system.l2.tags.occ_percent::total            0.989521                       # Average percentage of cache occupancy
system.l2.tags.occ_task_id_blocks::1024          4096                       # Occupied blocks per task id
system.l2.tags.age_task_id_blocks_1024::0            2                       # Occupied blocks per task id
system.l2.tags.age_task_id_blocks_1024::1           17                       # Occupied blocks per task id
system.l2.tags.age_task_id_blocks_1024::2          255                       # Occupied blocks per task id
system.l2.tags.age_task_id_blocks_1024::3         2413                       # Occupied blocks per task id
system.l2.tags.age_task_id_blocks_1024::4         1409                       # Occupied blocks per task id
system.l2.tags.occ_task_id_percent::1024            1                       # Percentage of cache occupancy per task id
system.l2.tags.tag_accesses                    548200                       # Number of tag accesses
system.l2.tags.data_accesses                   548200                       # Number of data accesses
system.l2.tags.power_state.pwrStateResidencyTicks::UNDEFINED 115754562000                       # Cumulative time (in ticks) in various power states
system.mem_ctrls.avgPriority_.writebacks::samples     43970.00                       # Average QoS priority value for accepted requests
system.mem_ctrls.avgPriority_.cpu.inst::samples       537.00                       # Average QoS priority value for accepted requests
system.mem_ctrls.avgPriority_.cpu.data::samples     48932.00                       # Average QoS priority value for accepted requests
system.mem_ctrls.priorityMinLatency      0.000000018750                       # per QoS priority minimum request to response latency (s)
system.mem_ctrls.priorityMaxLatency      0.002548048500                       # per QoS priority maximum request to response latency (s)
system.mem_ctrls.numReadWriteTurnArounds         2455                       # Number of turnarounds from READ to WRITE
system.mem_ctrls.numWriteReadTurnArounds         2455                       # Number of turnarounds from WRITE to READ
system.mem_ctrls.numStayReadState              172007                       # Number of times bus staying in READ state
system.mem_ctrls.numStayWriteState              41540                       # Number of times bus staying in WRITE state
system.mem_ctrls.readReqs                       49507                       # Number of read requests accepted
system.mem_ctrls.writeReqs                      43973                       # Number of write requests accepted
system.mem_ctrls.readBursts                     49507                       # Number of controller read bursts, including those serviced by the write queue
system.mem_ctrls.writeBursts                    43973                       # Number of controller write bursts, including those merged in the write queue
system.mem_ctrls.servicedByWrQ                     38                       # Number of controller read bursts serviced by the write queue
system.mem_ctrls.mergedWrBursts                     3                       # Number of controller write bursts merged with an existing one
system.mem_ctrls.neitherReadNorWriteReqs            0                       # Number of requests that are neither read nor write
system.mem_ctrls.avgRdQLen                       1.06                       # Average read queue length when enqueuing
system.mem_ctrls.avgWrQLen                      24.06                       # Average write queue length when enqueuing
system.mem_ctrls.numRdRetry                         0                       # Number of times read queue was full causing retry
[...]
system.mem_ctrls.dram.bw_write::.writebacks     24312407                       # Write bandwidth from this memory (bytes/s)
system.mem_ctrls.dram.bw_write::total        24312407                       # Write bandwidth from this memory (bytes/s)
system.mem_ctrls.dram.bw_total::.writebacks     24312407                       # Total bandwidth to/from this memory (bytes/s)
system.mem_ctrls.dram.bw_total::.cpu.inst       296904                       # Total bandwidth to/from this memory (bytes/s)
system.mem_ctrls.dram.bw_total::.cpu.data     27075218                       # Total bandwidth to/from this memory (bytes/s)
system.mem_ctrls.dram.bw_total::total        51684529                       # Total bandwidth to/from this memory (bytes/s)
system.mem_ctrls.dram.readBursts                49469                       # Number of DRAM read bursts
system.mem_ctrls.dram.writeBursts               43952                       # Number of DRAM write bursts
system.mem_ctrls.dram.perBankRdBursts::0         3017                       # Per bank write bursts
system.mem_ctrls.dram.perBankRdBursts::1         3012                       # Per bank write bursts
system.mem_ctrls.dram.perBankRdBursts::2         3019                       # Per bank write bursts
system.mem_ctrls.dram.perBankRdBursts::3         3485                       # Per bank write bursts
system.mem_ctrls.dram.perBankRdBursts::4         3427                       # Per bank write bursts
system.mem_ctrls.dram.perBankRdBursts::5         2935                       # Per bank write bursts
system.mem_ctrls.dram.perBankRdBursts::6         3008                       # Per bank write bursts
system.mem_ctrls.dram.perBankRdBursts::7         3148                       # Per bank write bursts
system.mem_ctrls.dram.perBankRdBursts::8         3010                       # Per bank write bursts
system.mem_ctrls.dram.perBankRdBursts::9         3072                       # Per bank write bursts
system.mem_ctrls.dram.perBankRdBursts::10         3103                       # Per bank write bursts
system.mem_ctrls.dram.perBankRdBursts::11         2992                       # Per bank write bursts
system.mem_ctrls.dram.perBankRdBursts::12         3124                       # Per bank write bursts
system.mem_ctrls.dram.perBankRdBursts::13         2984                       # Per bank write bursts
system.mem_ctrls.dram.perBankRdBursts::14         3108                       # Per bank write bursts
system.mem_ctrls.dram.perBankRdBursts::15         3025                       # Per bank write bursts
system.mem_ctrls.dram.perBankWrBursts::0         2714                       # Per bank write bursts
system.mem_ctrls.dram.perBankWrBursts::1         2725                       # Per bank write bursts
system.mem_ctrls.dram.perBankWrBursts::2         2744                       # Per bank write bursts
system.mem_ctrls.dram.perBankWrBursts::3         2725                       # Per bank write bursts
system.mem_ctrls.dram.perBankWrBursts::4         2783                       # Per bank write bursts
system.mem_ctrls.dram.perBankWrBursts::5         2680                       # Per bank write bursts
system.mem_ctrls.dram.perBankWrBursts::6         2752                       # Per bank write bursts
system.mem_ctrls.dram.perBankWrBursts::7         2864                       # Per bank write bursts
system.mem_ctrls.dram.perBankWrBursts::8         2711                       # Per bank write bursts
system.mem_ctrls.dram.perBankWrBursts::9         2760                       # Per bank write bursts
system.mem_ctrls.dram.perBankWrBursts::10         2812                       # Per bank write bursts
system.mem_ctrls.dram.perBankWrBursts::11         2676                       # Per bank write bursts
system.mem_ctrls.dram.perBankWrBursts::12         2804                       # Per bank write bursts
system.mem_ctrls.dram.perBankWrBursts::13         2695                       # Per bank write bursts
system.mem_ctrls.dram.perBankWrBursts::14         2770                       # Per bank write bursts
system.mem_ctrls.dram.perBankWrBursts::15         2737                       # Per bank write bursts
system.mem_ctrls.dram.totQLat               731782750                       # Total ticks spent queuing
system.mem_ctrls.dram.totBusLat             247345000                       # Total ticks spent in databus transfers
system.mem_ctrls.dram.totMemAccLat         1659326500                       # Total ticks spent from burst creation until serviced by the DRAM
system.mem_ctrls.dram.avgQLat                14792.75                       # Average queueing delay per DRAM burst
system.mem_ctrls.dram.avgBusLat               5000.00                       # Average bus latency per DRAM burst
system.mem_ctrls.dram.avgMemAccLat           33542.75                       # Average memory access latency per DRAM burst
system.mem_ctrls.dram.readRowHits               20545                       # Number of row buffer hits during reads
system.mem_ctrls.dram.writeRowHits              30070                       # Number of row buffer hits during writes
system.mem_ctrls.dram.readRowHitRate            41.53                       # Row buffer hit rate for reads
system.mem_ctrls.dram.writeRowHitRate           68.42                       # Row buffer hit rate for writes
system.mem_ctrls.dram.bytesPerActivate::samples        42805                       # Bytes accessed per row activation
system.mem_ctrls.dram.bytesPerActivate::mean   139.677141                       # Bytes accessed per row activation
system.mem_ctrls.dram.bytesPerActivate::gmean   100.180905                       # Bytes accessed per row activation
system.mem_ctrls.dram.bytesPerActivate::stdev   168.476847                       # Bytes accessed per row activation
system.mem_ctrls.dram.bytesPerActivate::0-127        26333     61.52%     61.52% # Bytes accessed per row activation
system.mem_ctrls.dram.bytesPerActivate::128-255        10817     25.27%     86.79% # Bytes accessed per row activation
system.mem_ctrls.dram.bytesPerActivate::256-383         2272      5.31%     92.10% # Bytes accessed per row activation
system.mem_ctrls.dram.bytesPerActivate::384-511         1296      3.03%     95.12% # Bytes accessed per row activation
system.mem_ctrls.dram.bytesPerActivate::512-639          640      1.50%     96.62% # Bytes accessed per row activation
system.mem_ctrls.dram.bytesPerActivate::640-767          357      0.83%     97.45% # Bytes accessed per row activation
system.mem_ctrls.dram.bytesPerActivate::768-895          279      0.65%     98.11% # Bytes accessed per row activation
system.mem_ctrls.dram.bytesPerActivate::896-1023          276      0.64%     98.75% # Bytes accessed per row activation
system.mem_ctrls.dram.bytesPerActivate::1024-1151          535      1.25%    100.00% # Bytes accessed per row activation
system.mem_ctrls.dram.bytesPerActivate::total        42805                       # Bytes accessed per row activation
system.mem_ctrls.dram.bytesRead               3166016                       # Total number of bytes read from DRAM
system.mem_ctrls.dram.bytesWritten            2812928                       # Total number of bytes written to DRAM
system.mem_ctrls.dram.avgRdBW               27.351112                       # Average DRAM read bandwidth in MiBytes/s
system.mem_ctrls.dram.avgWrBW               24.300796                       # Average DRAM write bandwidth in MiBytes/s
system.mem_ctrls.dram.peakBW                 12800.00                       # Theoretical peak bandwidth in MiByte/s
system.mem_ctrls.dram.busUtil                    0.40                       # Data bus utilization in percentage
system.mem_ctrls.dram.busUtilRead                0.21                       # Data bus utilization in percentage for reads
system.mem_ctrls.dram.busUtilWrite               0.19                       # Data bus utilization in percentage for writes
system.mem_ctrls.dram.pageHitRate               54.18                       # Row buffer hit rate, read and write combined
system.mem_ctrls.dram.power_state.pwrStateResidencyTicks::UNDEFINED 115754562000                       # Cumulative time (in ticks) in various power states
system.mem_ctrls.dram.rank0.actEnergy       158101020                       # Energy for activate commands per rank (pJ)
system.mem_ctrls.dram.rank0.preEnergy        84028890                       # Energy for precharge commands per rank (pJ)
system.mem_ctrls.dram.rank0.readEnergy      178864140                       # Energy for read commands per rank (pJ)
system.mem_ctrls.dram.rank0.writeEnergy     114772140                       # Energy for write commands per rank (pJ)
system.mem_ctrls.dram.rank0.refreshEnergy 9137238240.000002                       # Energy for refresh commands per rank (pJ)
system.mem_ctrls.dram.rank0.actBackEnergy  26270152590                       # Energy for active background per rank (pJ)
system.mem_ctrls.dram.rank0.preBackEnergy  22327518240                       # Energy for precharge background per rank (pJ)
system.mem_ctrls.dram.rank0.actPowerDownEnergy            0                       # Energy for active power-down per rank (pJ)
system.mem_ctrls.dram.rank0.prePowerDownEnergy            0                       # Energy for precharge power-down per rank (pJ)
system.mem_ctrls.dram.rank0.selfRefreshEnergy            0                       # Energy for self refresh per rank (pJ)
system.mem_ctrls.dram.rank0.totalEnergy   58270675260                       # Total energy per rank (pJ)
system.mem_ctrls.dram.rank0.averagePower   503.398521                       # Core power per rank (mW)
system.mem_ctrls.dram.rank0.totalIdleTime            0                       # Total Idle time Per DRAM Rank
system.mem_ctrls.dram.rank0.pwrStateTime::IDLE  57786358000                       # Time in different power states
system.mem_ctrls.dram.rank0.pwrStateTime::REF   3865160000                       # Time in different power states
system.mem_ctrls.dram.rank0.pwrStateTime::SREF            0                       # Time in different power states
system.mem_ctrls.dram.rank0.pwrStateTime::PRE_PDN            0                       # Time in different power states
system.mem_ctrls.dram.rank0.pwrStateTime::ACT  54103044000                       # Time in different power states
system.mem_ctrls.dram.rank0.pwrStateTime::ACT_PDN            0                       # Time in different power states
system.mem_ctrls.dram.rank1.actEnergy       147533820                       # Energy for activate commands per rank (pJ)
system.mem_ctrls.dram.rank1.preEnergy        78416085                       # Energy for precharge commands per rank (pJ)
system.mem_ctrls.dram.rank1.readEnergy      174344520                       # Energy for read commands per rank (pJ)
system.mem_ctrls.dram.rank1.writeEnergy     114657300                       # Energy for write commands per rank (pJ)
system.mem_ctrls.dram.rank1.refreshEnergy 9137238240.000002                       # Energy for refresh commands per rank (pJ)
system.mem_ctrls.dram.rank1.actBackEnergy  26007215010                       # Energy for active background per rank (pJ)
system.mem_ctrls.dram.rank1.preBackEnergy  22548939360                       # Energy for precharge background per rank (pJ)
system.mem_ctrls.dram.rank1.actPowerDownEnergy            0                       # Energy for active power-down per rank (pJ)
system.mem_ctrls.dram.rank1.prePowerDownEnergy            0                       # Energy for precharge power-down per rank (pJ)
system.mem_ctrls.dram.rank1.selfRefreshEnergy            0                       # Energy for self refresh per rank (pJ)
system.mem_ctrls.dram.rank1.totalEnergy   58208344335                       # Total energy per rank (pJ)
system.mem_ctrls.dram.rank1.averagePower   502.860046                       # Core power per rank (mW)
system.mem_ctrls.dram.rank1.totalIdleTime            0                       # Total Idle time Per DRAM Rank
system.mem_ctrls.dram.rank1.pwrStateTime::IDLE  58363347000                       # Time in different power states
system.mem_ctrls.dram.rank1.pwrStateTime::REF   3865160000                       # Time in different power states
system.mem_ctrls.dram.rank1.pwrStateTime::SREF            0                       # Time in different power states
system.mem_ctrls.dram.rank1.pwrStateTime::PRE_PDN            0                       # Time in different power states
system.mem_ctrls.dram.rank1.pwrStateTime::ACT  53526055000                       # Time in different power states
system.mem_ctrls.dram.rank1.pwrStateTime::ACT_PDN            0                       # Time in different power states
system.mem_ctrls.power_state.pwrStateResidencyTicks::UNDEFINED 115754562000                       # Cumulative time (in ticks) in various power states
system.membus.trans_dist::ReadResp              10694                       # Transaction distribution
system.membus.trans_dist::WritebackDirty        43973                       # Transaction distribution
system.membus.trans_dist::CleanEvict              927                       # Transaction distribution
system.membus.trans_dist::ReadExReq             38813                       # Transaction distribution
system.membus.trans_dist::ReadExResp            38813                       # Transaction distribution
system.membus.trans_dist::ReadSharedReq         10694                       # Transaction distribution
system.membus.pkt_count_system.l2.mem_side_port::system.mem_ctrls.port       143914                       # Packet count per connected requestor and responder (bytes)
system.membus.pkt_count::total                 143914                       # Packet count per connected requestor and responder (bytes)
system.membus.pkt_size_system.l2.mem_side_port::system.mem_ctrls.port      5982720                       # Cumulative packet size per connected requestor and responder (bytes)
system.membus.pkt_size::total                 5982720                       # Cumulative packet size per connected requestor and responder (bytes)
system.membus.snoops                                0                       # Total snoops (count)
system.membus.snoopTraffic                          0                       # Total snoop traffic (bytes)
system.membus.snoop_fanout::samples             49507                       # Request fanout histogram
system.membus.snoop_fanout::mean                    0                       # Request fanout histogram
system.membus.snoop_fanout::stdev                   0                       # Request fanout histogram
system.membus.snoop_fanout::underflows              0      0.00%      0.00% # Request fanout histogram
system.membus.snoop_fanout::0                   49507    100.00%    100.00% # Request fanout histogram
system.membus.snoop_fanout::1                       0      0.00%    100.00% # Request fanout histogram
system.membus.snoop_fanout::overflows               0      0.00%    100.00% # Request fanout histogram
system.membus.snoop_fanout::min_value               0                       # Request fanout histogram
system.membus.snoop_fanout::max_value               0                       # Request fanout histogram
system.membus.snoop_fanout::total               49507                       # Request fanout histogram
system.membus.power_state.pwrStateResidencyTicks::UNDEFINED 115754562000                       # Cumulative time (in ticks) in various power states
system.membus.reqLayer0.occupancy           270299000                       # Layer occupancy (ticks)
system.membus.reqLayer0.utilization               0.2                       # Layer utilization (%)
system.membus.respLayer1.occupancy          267379500                       # Layer occupancy (ticks)
system.membus.respLayer1.utilization              0.2                       # Layer utilization (%)
system.tol2bus.trans_dist::ReadResp             78440                       # Transaction distribution
system.tol2bus.trans_dist::WritebackDirty       116206                       # Transaction distribution
system.tol2bus.trans_dist::WritebackClean          758                       # Transaction distribution
system.tol2bus.trans_dist::CleanEvict           54440                       # Transaction distribution
system.tol2bus.trans_dist::ReadExReq            47793                       # Transaction distribution
system.tol2bus.trans_dist::ReadExResp           47792                       # Transaction distribution
system.tol2bus.trans_dist::ReadCleanReq          1200                       # Transaction distribution
system.tol2bus.trans_dist::ReadSharedReq        77240                       # Transaction distribution
system.tol2bus.pkt_count_system.cpu.icache.mem_side_port::system.l2.cpu_side_port         3158                       # Packet count per connected requestor and responder (bytes)
system.tol2bus.pkt_count_system.cpu.dcache.mem_side_port::system.l2.cpu_side_port       374585                       # Packet count per connected requestor and responder (bytes)
system.tol2bus.pkt_count::total                377743                       # Packet count per connected requestor and responder (bytes)
system.tol2bus.pkt_size_system.cpu.icache.mem_side_port::system.l2.cpu_side_port       125312                       # Cumulative packet size per connected requestor and responder (bytes)
system.tol2bus.pkt_size_system.cpu.dcache.mem_side_port::system.l2.cpu_side_port     12624896                       # Cumulative packet size per connected requestor and responder (bytes)
system.tol2bus.pkt_size::total               12750208                       # Cumulative packet size per connected requestor and responder (bytes)
system.tol2bus.snoops                           46126                       # Total snoops (count)
system.tol2bus.snoopTraffic                   2814336                       # Total snoop traffic (bytes)
system.tol2bus.snoop_fanout::samples           172359                       # Request fanout histogram
system.tol2bus.snoop_fanout::mean            0.023480                       # Request fanout histogram
system.tol2bus.snoop_fanout::stdev           0.154345                       # Request fanout histogram
system.tol2bus.snoop_fanout::underflows             0      0.00%      0.00% # Request fanout histogram
system.tol2bus.snoop_fanout::0                 168389     97.70%     97.70% # Request fanout histogram
system.tol2bus.snoop_fanout::1                   3893      2.26%     99.96% # Request fanout histogram
system.tol2bus.snoop_fanout::2                     77      0.04%    100.00% # Request fanout histogram
system.tol2bus.snoop_fanout::overflows              0      0.00%    100.00% # Request fanout histogram
system.tol2bus.snoop_fanout::min_value              0                       # Request fanout histogram
system.tol2bus.snoop_fanout::max_value              2                       # Request fanout histogram
system.tol2bus.snoop_fanout::total             172359                       # Request fanout histogram
system.tol2bus.power_state.pwrStateResidencyTicks::UNDEFINED 115754562000                       # Cumulative time (in ticks) in various power states
system.tol2bus.reqLayer0.occupancy          397491000                       # Layer occupancy (ticks)
system.tol2bus.reqLayer0.utilization              0.3                       # Layer utilization (%)
system.tol2bus.respLayer0.occupancy           3600999                       # Layer occupancy (ticks)
system.tol2bus.respLayer0.utilization             0.0                       # Layer utilization (%)
system.tol2bus.respLayer1.occupancy         375100995                       # Layer occupancy (ticks)
system.tol2bus.respLayer1.utilization             0.3                       # Layer utilization (%)
system.voltage_domain.voltage                       1                       # Voltage in Volts

---------- End Simulation Statistics   ----------
