
---------- Begin Simulation Statistics ----------
final_tick                               169134548000                       # Number of ticks from beginning of simulation (restored from checkpoints and never reset)
host_inst_rate                                 426713                       # Simulator instruction rate (inst/s)
host_mem_usage                                 660104                       # Number of bytes of host memory used
host_op_rate                                   426730                       # Simulator op (including micro ops) rate (op/s)
host_seconds                                   234.35                       # Real time elapsed on the host
host_tick_rate                              721719600                       # Simulator tick rate (ticks/s)
sim_freq                                 1000000000000                       # Frequency of simulated ticks
sim_insts                                   100000000                       # Number of instructions simulated
sim_ops                                     100003793                       # Number of ops (including micro ops) simulated
sim_seconds                                  0.169135                       # Number of seconds simulated
sim_ticks                                169134548000                       # Number of ticks simulated
system.cpu.committedInsts                   100000000                       # Number of instructions committed
system.cpu.committedOps                     100003793                       # Number of ops (including micro ops) committed
system.cpu.cpi                               1.691345                       # CPI: cycles per instruction
system.cpu.discardedOps                         21351                       # Number of ops (including micro ops) which were discarded before commit
system.cpu.idleCycles                        55195408                       # Total number of cycles that the object has spent stopped
system.cpu.ipc                               0.591245                       # IPC: instructions per cycle
system.cpu.numCycles                        169134548                       # number of cpu cycles simulated
system.cpu.numFetchSuspends                         0                       # Number of times Execute suspended instruction fetching
system.cpu.numWorkItemsCompleted                    0                       # number of work items this cpu completed
system.cpu.numWorkItemsStarted                      0                       # number of work items this cpu started
system.cpu.op_class_0::No_OpClass                   0      0.00%      0.00% # Class of committed instruction
system.cpu.op_class_0::IntAlu                49995768     49.99%     49.99% # Class of committed instruction
system.cpu.op_class_0::IntMult                     85      0.00%     49.99% # Class of committed instruction
system.cpu.op_class_0::IntDiv                       0      0.00%     49.99% # Class of committed instruction
system.cpu.op_class_0::FloatAdd                     0      0.00%     49.99% # Class of committed instruction
system.cpu.op_class_0::FloatCmp                     0      0.00%     49.99% # Class of committed instruction
system.cpu.op_class_0::FloatCvt                     0      0.00%     49.99% # Class of committed instruction
system.cpu.op_class_0::FloatMult                    0      0.00%     49.99% # Class of committed instruction
system.cpu.op_class_0::FloatMultAcc                 0      0.00%     49.99% # Class of committed instruction
system.cpu.op_class_0::FloatDiv                     0      0.00%     49.99% # Class of committed instruction
system.cpu.op_class_0::FloatMisc                    0      0.00%     49.99% # Class of committed instruction
system.cpu.op_class_0::FloatSqrt                    0      0.00%     49.99% # Class of committed instruction
system.cpu.op_class_0::SimdAdd                      0      0.00%     49.99% # Class of committed instruction
system.cpu.op_class_0::SimdAddAcc                   0      0.00%     49.99% # Class of committed instruction
system.cpu.op_class_0::SimdAlu                      0      0.00%     49.99% # Class of committed instruction
system.cpu.op_class_0::SimdCmp                      0      0.00%     49.99% # Class of committed instruction
system.cpu.op_class_0::SimdCvt                      0      0.00%     49.99% # Class of committed instruction
system.cpu.op_class_0::SimdMisc                     0      0.00%     49.99% # Class of committed instruction
system.cpu.op_class_0::SimdMult                     0      0.00%     49.99% # Class of committed instruction
system.cpu.op_class_0::SimdMultAcc                  0      0.00%     49.99% # Class of committed instruction
system.cpu.op_class_0::SimdShift                    0      0.00%     49.99% # Class of committed instruction
system.cpu.op_class_0::SimdShiftAcc                 0      0.00%     49.99% # Class of committed instruction
system.cpu.op_class_0::SimdDiv                      0      0.00%     49.99% # Class of committed instruction
system.cpu.op_class_0::SimdSqrt                     0      0.00%     49.99% # Class of committed instruction
system.cpu.op_class_0::SimdFloatAdd                 0      0.00%     49.99% # Class of committed instruction
system.cpu.op_class_0::SimdFloatAlu                 0      0.00%     49.99% # Class of committed instruction
system.cpu.op_class_0::SimdFloatCmp                 2      0.00%     49.99% # Class of committed instruction
system.cpu.op_class_0::SimdFloatCvt                 0      0.00%     49.99% # Class of committed instruction
system.cpu.op_class_0::SimdFloatDiv                 0      0.00%     49.99% # Class of committed instruction
system.cpu.op_class_0::SimdFloatMisc               22      0.00%     49.99% # Class of committed instruction
system.cpu.op_class_0::SimdFloatMult                0      0.00%     49.99% # Class of committed instruction
system.cpu.op_class_0::SimdFloatMultAcc             0      0.00%     49.99% # Class of committed instruction
system.cpu.op_class_0::SimdFloatSqrt                0      0.00%     49.99% # Class of committed instruction
system.cpu.op_class_0::SimdReduceAdd                0      0.00%     49.99% # Class of committed instruction
system.cpu.op_class_0::SimdReduceAlu                0      0.00%     49.99% # Class of committed instruction
system.cpu.op_class_0::SimdReduceCmp                0      0.00%     49.99% # Class of committed instruction
system.cpu.op_class_0::SimdFloatReduceAdd            0      0.00%     49.99% # Class of committed instruction
system.cpu.op_class_0::SimdFloatReduceCmp            0      0.00%     49.99% # Class of committed instruction
system.cpu.op_class_0::SimdAes                      0      0.00%     49.99% # Class of committed instruction
system.cpu.op_class_0::SimdAesMix                   0      0.00%     49.99% # Class of committed instruction
system.cpu.op_class_0::SimdSha1Hash                 0      0.00%     49.99% # Class of committed instruction
system.cpu.op_class_0::SimdSha1Hash2                0      0.00%     49.99% # Class of committed instruction
system.cpu.op_class_0::SimdSha256Hash               0      0.00%     49.99% # Class of committed instruction
system.cpu.op_class_0::SimdSha256Hash2              0      0.00%     49.99% # Class of committed instruction
system.cpu.op_class_0::SimdShaSigma2                0      0.00%     49.99% # Class of committed instruction
system.cpu.op_class_0::SimdShaSigma3                0      0.00%     49.99% # Class of committed instruction
system.cpu.op_class_0::SimdPredAlu                  0      0.00%     49.99% # Class of committed instruction
system.cpu.op_class_0::MemRead               36892130     36.89%     86.88% # Class of committed instruction
system.cpu.op_class_0::MemWrite              13115786     13.12%    100.00% # Class of committed instruction
system.cpu.op_class_0::FloatMemRead                 0      0.00%    100.00% # Class of committed instruction
system.cpu.op_class_0::FloatMemWrite                0      0.00%    100.00% # Class of committed instruction
system.cpu.op_class_0::IprAccess                    0      0.00%    100.00% # Class of committed instruction
system.cpu.op_class_0::InstPrefetch                 0      0.00%    100.00% # Class of committed instruction
system.cpu.op_class_0::total                100003793                       # Class of committed instruction
system.cpu.tickCycles                       113939140                       # Number of cycles that the object actually ticked
system.cpu.workload.numSyscalls                    18                       # Number of system calls
system.membus.snoop_filter.hit_multi_requests            0                       # Number of requests hitting in the snoop filter with multiple (>1) holders of the requested data.
system.membus.snoop_filter.hit_multi_snoops            0                       # Number of snoops hitting in the snoop filter with multiple (>1) holders of the requested data.
system.membus.snoop_filter.hit_single_requests       369974                       # Number of requests hitting in the snoop filter with a single holder of the requested data.
system.membus.snoop_filter.hit_single_snoops            0                       # Number of snoops hitting in the snoop filter with a single holder of the requested data.
system.membus.snoop_filter.tot_requests        742144                       # Total number of requests made to the snoop filter.
system.membus.snoop_filter.tot_snoops               0                       # Total number of snoops made to the snoop filter.
system.tol2bus.snoop_filter.hit_multi_requests        23287                       # Number of requests hitting in the snoop filter with multiple (>1) holders of the requested data.
system.tol2bus.snoop_filter.hit_multi_snoops            0                       # Number of snoops hitting in the snoop filter with multiple (>1) holders of the requested data.
system.tol2bus.snoop_filter.hit_single_requests       461990                       # Number of requests hitting in the snoop filter with a single holder of the requested data.
system.tol2bus.snoop_filter.hit_single_snoops          148                       # Number of snoops hitting in the snoop filter with a single holder of the requested data.
system.tol2bus.snoop_filter.tot_requests       924383                       # Total number of requests made to the snoop filter.
system.tol2bus.snoop_filter.tot_snoops            148                       # Total number of snoops made to the snoop filter.
system.clk_domain.clock                          1000                       # Clock period in ticks
system.cpu.branchPred.lookups                  607051                       # Number of BP lookups
system.cpu.branchPred.condPredicted            604835                       # Number of conditional branches predicted
system.cpu.branchPred.condIncorrect               854                       # Number of conditional branches incorrect
system.cpu.branchPred.BTBLookups               602684                       # Number of BTB lookups
system.cpu.branchPred.BTBHits                  601490                       # Number of BTB hits
system.cpu.branchPred.BTBHitPct             99.801886                       # BTB Hit Percentage
system.cpu.branchPred.RASUsed                     599                       # Number of times the RAS was used to get a target.
system.cpu.branchPred.RASIncorrect                  1                       # Number of incorrect RAS predictions.
system.cpu.branchPred.indirectLookups             393                       # Number of indirect predictor lookups.
system.cpu.branchPred.indirectHits                172                       # Number of indirect target hits.
system.cpu.branchPred.indirectMisses              221                       # Number of indirect misses.
system.cpu.branchPred.indirectMispredicted          105                       # Number of mispredicted indirect branches.
system.cpu.dcache.demand_hits::.cpu.data     47918920                       # number of demand (read+write) hits
system.cpu.dcache.demand_hits::total         47918920                       # number of demand (read+write) hits
system.cpu.dcache.overall_hits::.cpu.data     47918976                       # number of overall hits
system.cpu.dcache.overall_hits::total        47918976                       # number of overall hits
system.cpu.dcache.demand_misses::.cpu.data       876026                       # number of demand (read+write) misses
system.cpu.dcache.demand_misses::total         876026                       # number of demand (read+write) misses
system.cpu.dcache.overall_misses::.cpu.data       876035                       # number of overall misses
system.cpu.dcache.overall_misses::total        876035                       # number of overall misses
system.cpu.dcache.demand_miss_latency::.cpu.data  97413096000                       # number of demand (read+write) miss cycles
system.cpu.dcache.demand_miss_latency::total  97413096000                       # number of demand (read+write) miss cycles
system.cpu.dcache.overall_miss_latency::.cpu.data  97413096000                       # number of overall miss cycles
system.cpu.dcache.overall_miss_latency::total  97413096000                       # number of overall miss cycles
system.cpu.dcache.demand_accesses::.cpu.data     48794946                       # number of demand (read+write) accesses
system.cpu.dcache.demand_accesses::total     48794946                       # number of demand (read+write) accesses
system.cpu.dcache.overall_accesses::.cpu.data     48795011                       # number of overall (read+write) accesses
system.cpu.dcache.overall_accesses::total     48795011                       # number of overall (read+write) accesses
system.cpu.dcache.demand_miss_rate::.cpu.data     0.017953                       # miss rate for demand accesses
system.cpu.dcache.demand_miss_rate::total     0.017953                       # miss rate for demand accesses
system.cpu.dcache.overall_miss_rate::.cpu.data     0.017953                       # miss rate for overall accesses
system.cpu.dcache.overall_miss_rate::total     0.017953                       # miss rate for overall accesses
system.cpu.dcache.demand_avg_miss_latency::.cpu.data 111198.863961                       # average overall miss latency
system.cpu.dcache.demand_avg_miss_latency::total 111198.863961                       # average overall miss latency
system.cpu.dcache.overall_avg_miss_latency::.cpu.data 111197.721552                       # average overall miss latency
system.cpu.dcache.overall_avg_miss_latency::total 111197.721552                       # average overall miss latency
system.cpu.dcache.blocked_cycles::no_mshrs            0                       # number of cycles access was blocked
system.cpu.dcache.blocked_cycles::no_targets            0                       # number of cycles access was blocked
system.cpu.dcache.blocked::no_mshrs                 0                       # number of cycles access was blocked
system.cpu.dcache.blocked::no_targets               0                       # number of cycles access was blocked
system.cpu.dcache.avg_blocked_cycles::no_mshrs          nan                       # average number of cycles each access was blocked
system.cpu.dcache.avg_blocked_cycles::no_targets          nan                       # average number of cycles each access was blocked
system.cpu.dcache.writebacks::.writebacks       438450                       # number of writebacks
system.cpu.dcache.writebacks::total            438450                       # number of writebacks
system.cpu.dcache.demand_mshr_hits::.cpu.data       414001                       # number of demand (read+write) MSHR hits
system.cpu.dcache.demand_mshr_hits::total       414001                       # number of demand (read+write) MSHR hits
system.cpu.dcache.overall_mshr_hits::.cpu.data       414001                       # number of overall MSHR hits
system.cpu.dcache.overall_mshr_hits::total       414001                       # number of overall MSHR hits
system.cpu.dcache.demand_mshr_misses::.cpu.data       462025                       # number of demand (read+write) MSHR misses
system.cpu.dcache.demand_mshr_misses::total       462025                       # number of demand (read+write) MSHR misses
system.cpu.dcache.overall_mshr_misses::.cpu.data       462029                       # number of overall MSHR misses
system.cpu.dcache.overall_mshr_misses::total       462029                       # number of overall MSHR misses
system.cpu.dcache.demand_mshr_miss_latency::.cpu.data  49868481000                       # number of demand (read+write) MSHR miss cycles
system.cpu.dcache.demand_mshr_miss_latency::total  49868481000                       # number of demand (read+write) MSHR miss cycles
system.cpu.dcache.overall_mshr_miss_latency::.cpu.data  49868944000                       # number of overall MSHR miss cycles
system.cpu.dcache.overall_mshr_miss_latency::total  49868944000                       # number of overall MSHR miss cycles
system.cpu.dcache.demand_mshr_miss_rate::.cpu.data     0.009469                       # mshr miss rate for demand accesses
system.cpu.dcache.demand_mshr_miss_rate::total     0.009469                       # mshr miss rate for demand accesses
system.cpu.dcache.overall_mshr_miss_rate::.cpu.data     0.009469                       # mshr miss rate for overall accesses
system.cpu.dcache.overall_mshr_miss_rate::total     0.009469                       # mshr miss rate for overall accesses
system.cpu.dcache.demand_avg_mshr_miss_latency::.cpu.data 107934.594448                       # average overall mshr miss latency
system.cpu.dcache.demand_avg_mshr_miss_latency::total 107934.594448                       # average overall mshr miss latency
system.cpu.dcache.overall_avg_mshr_miss_latency::.cpu.data 107934.662110                       # average overall mshr miss latency
system.cpu.dcache.overall_avg_mshr_miss_latency::total 107934.662110                       # average overall mshr miss latency
system.cpu.dcache.replacements                 461773                       # number of replacements
system.cpu.dcache.ReadReq_hits::.cpu.data     35655945                       # number of ReadReq hits
system.cpu.dcache.ReadReq_hits::total        35655945                       # number of ReadReq hits
system.cpu.dcache.ReadReq_misses::.cpu.data        46573                       # number of ReadReq misses
system.cpu.dcache.ReadReq_misses::total         46573                       # number of ReadReq misses
system.cpu.dcache.ReadReq_miss_latency::.cpu.data   2123610000                       # number of ReadReq miss cycles
system.cpu.dcache.ReadReq_miss_latency::total   2123610000                       # number of ReadReq miss cycles
system.cpu.dcache.ReadReq_accesses::.cpu.data     35702518                       # number of ReadReq accesses(hits+misses)
system.cpu.dcache.ReadReq_accesses::total     35702518                       # number of ReadReq accesses(hits+misses)
system.cpu.dcache.ReadReq_miss_rate::.cpu.data     0.001304                       # miss rate for ReadReq accesses
system.cpu.dcache.ReadReq_miss_rate::total     0.001304                       # miss rate for ReadReq accesses
system.cpu.dcache.ReadReq_avg_miss_latency::.cpu.data 45597.449166                       # average ReadReq miss latency
system.cpu.dcache.ReadReq_avg_miss_latency::total 45597.449166                       # average ReadReq miss latency
system.cpu.dcache.ReadReq_mshr_hits::.cpu.data            6                       # number of ReadReq MSHR hits
system.cpu.dcache.ReadReq_mshr_hits::total            6                       # number of ReadReq MSHR hits
system.cpu.dcache.ReadReq_mshr_misses::.cpu.data        46567                       # number of ReadReq MSHR misses
system.cpu.dcache.ReadReq_mshr_misses::total        46567                       # number of ReadReq MSHR misses
system.cpu.dcache.ReadReq_mshr_miss_latency::.cpu.data   2029736000                       # number of ReadReq MSHR miss cycles
system.cpu.dcache.ReadReq_mshr_miss_latency::total   2029736000                       # number of ReadReq MSHR miss cycles
system.cpu.dcache.ReadReq_mshr_miss_rate::.cpu.data     0.001304                       # mshr miss rate for ReadReq accesses
system.cpu.dcache.ReadReq_mshr_miss_rate::total     0.001304                       # mshr miss rate for ReadReq accesses
system.cpu.dcache.ReadReq_avg_mshr_miss_latency::.cpu.data 43587.433161                       # average ReadReq mshr miss latency
system.cpu.dcache.ReadReq_avg_mshr_miss_latency::total 43587.433161                       # average ReadReq mshr miss latency
system.cpu.dcache.WriteReq_hits::.cpu.data     12262975                       # number of WriteReq hits
system.cpu.dcache.WriteReq_hits::total       12262975                       # number of WriteReq hits
system.cpu.dcache.WriteReq_misses::.cpu.data       829453                       # number of WriteReq misses
system.cpu.dcache.WriteReq_misses::total       829453                       # number of WriteReq misses
system.cpu.dcache.WriteReq_miss_latency::.cpu.data  95289486000                       # number of WriteReq miss cycles
system.cpu.dcache.WriteReq_miss_latency::total  95289486000                       # number of WriteReq miss cycles
system.cpu.dcache.WriteReq_accesses::.cpu.data     13092428                       # number of WriteReq accesses(hits+misses)
system.cpu.dcache.WriteReq_accesses::total     13092428                       # number of WriteReq accesses(hits+misses)
system.cpu.dcache.WriteReq_miss_rate::.cpu.data     0.063354                       # miss rate for WriteReq accesses
system.cpu.dcache.WriteReq_miss_rate::total     0.063354                       # miss rate for WriteReq accesses
system.cpu.dcache.WriteReq_avg_miss_latency::.cpu.data 114882.321241                       # average WriteReq miss latency
system.cpu.dcache.WriteReq_avg_miss_latency::total 114882.321241                       # average WriteReq miss latency
system.cpu.dcache.WriteReq_mshr_hits::.cpu.data       413995                       # number of WriteReq MSHR hits
system.cpu.dcache.WriteReq_mshr_hits::total       413995                       # number of WriteReq MSHR hits
system.cpu.dcache.WriteReq_mshr_misses::.cpu.data       415458                       # number of WriteReq MSHR misses
system.cpu.dcache.WriteReq_mshr_misses::total       415458                       # number of WriteReq MSHR misses
system.cpu.dcache.WriteReq_mshr_miss_latency::.cpu.data  47838745000                       # number of WriteReq MSHR miss cycles
system.cpu.dcache.WriteReq_mshr_miss_latency::total  47838745000                       # number of WriteReq MSHR miss cycles
system.cpu.dcache.WriteReq_mshr_miss_rate::.cpu.data     0.031733                       # mshr miss rate for WriteReq accesses
system.cpu.dcache.WriteReq_mshr_miss_rate::total     0.031733                       # mshr miss rate for WriteReq accesses
system.cpu.dcache.WriteReq_avg_mshr_miss_latency::.cpu.data 115147.006436                       # average WriteReq mshr miss latency
system.cpu.dcache.WriteReq_avg_mshr_miss_latency::total 115147.006436                       # average WriteReq mshr miss latency
system.cpu.dcache.SoftPFReq_hits::.cpu.data           56                       # number of SoftPFReq hits
system.cpu.dcache.SoftPFReq_hits::total            56                       # number of SoftPFReq hits
system.cpu.dcache.SoftPFReq_misses::.cpu.data            9                       # number of SoftPFReq misses
system.cpu.dcache.SoftPFReq_misses::total            9                       # number of SoftPFReq misses
system.cpu.dcache.SoftPFReq_accesses::.cpu.data           65                       # number of SoftPFReq accesses(hits+misses)
system.cpu.dcache.SoftPFReq_accesses::total           65                       # number of SoftPFReq accesses(hits+misses)
system.cpu.dcache.SoftPFReq_miss_rate::.cpu.data     0.138462                       # miss rate for SoftPFReq accesses
system.cpu.dcache.SoftPFReq_miss_rate::total     0.138462                       # miss rate for SoftPFReq accesses
system.cpu.dcache.SoftPFReq_mshr_misses::.cpu.data            4                       # number of SoftPFReq MSHR misses
system.cpu.dcache.SoftPFReq_mshr_misses::total            4                       # number of SoftPFReq MSHR misses
system.cpu.dcache.SoftPFReq_mshr_miss_latency::.cpu.data       463000                       # number of SoftPFReq MSHR miss cycles
system.cpu.dcache.SoftPFReq_mshr_miss_latency::total       463000                       # number of SoftPFReq MSHR miss cycles
system.cpu.dcache.SoftPFReq_mshr_miss_rate::.cpu.data     0.061538                       # mshr miss rate for SoftPFReq accesses
system.cpu.dcache.SoftPFReq_mshr_miss_rate::total     0.061538                       # mshr miss rate for SoftPFReq accesses
system.cpu.dcache.SoftPFReq_avg_mshr_miss_latency::.cpu.data       115750                       # average SoftPFReq mshr miss latency
system.cpu.dcache.SoftPFReq_avg_mshr_miss_latency::total       115750                       # average SoftPFReq mshr miss latency
system.cpu.dcache.LoadLockedReq_hits::.cpu.data           14                       # number of LoadLockedReq hits
system.cpu.dcache.LoadLockedReq_hits::total           14                       # number of LoadLockedReq hits
system.cpu.dcache.LoadLockedReq_accesses::.cpu.data           14                       # number of LoadLockedReq accesses(hits+misses)
system.cpu.dcache.LoadLockedReq_accesses::total           14                       # number of LoadLockedReq accesses(hits+misses)
system.cpu.dcache.StoreCondReq_hits::.cpu.data           14                       # number of StoreCondReq hits
system.cpu.dcache.StoreCondReq_hits::total           14                       # number of StoreCondReq hits
system.cpu.dcache.StoreCondReq_accesses::.cpu.data           14                       # number of StoreCondReq accesses(hits+misses)
system.cpu.dcache.StoreCondReq_accesses::total           14                       # number of StoreCondReq accesses(hits+misses)
system.cpu.dcache.power_state.pwrStateResidencyTicks::UNDEFINED 169134548000                       # Cumulative time (in ticks) in various power states
system.cpu.dcache.tags.tagsinuse           255.864682                       # Cycle average of tags in use
system.cpu.dcache.tags.total_refs            48381033                       # Total number of references to valid blocks.
system.cpu.dcache.tags.sampled_refs            462029                       # Sample count of references to valid blocks.
system.cpu.dcache.tags.avg_refs            104.714278                       # Average number of references to valid blocks.
system.cpu.dcache.tags.warmup_cycle            255000                       # Cycle when the warmup percentage was hit.
system.cpu.dcache.tags.occ_blocks::.cpu.data   255.864682                       # Average occupied blocks per requestor
system.cpu.dcache.tags.occ_percent::.cpu.data     0.999471                       # Average percentage of cache occupancy
system.cpu.dcache.tags.occ_percent::total     0.999471                       # Average percentage of cache occupancy
system.cpu.dcache.tags.occ_task_id_blocks::1024          256                       # Occupied blocks per task id
system.cpu.dcache.tags.age_task_id_blocks_1024::0           24                       # Occupied blocks per task id
system.cpu.dcache.tags.age_task_id_blocks_1024::1          199                       # Occupied blocks per task id
system.cpu.dcache.tags.age_task_id_blocks_1024::2           33                       # Occupied blocks per task id
system.cpu.dcache.tags.occ_task_id_percent::1024            1                       # Percentage of cache occupancy per task id
system.cpu.dcache.tags.tag_accesses          49257068                       # Number of tag accesses
system.cpu.dcache.tags.data_accesses         49257068                       # Number of data accesses
system.cpu.dcache.tags.power_state.pwrStateResidencyTicks::UNDEFINED 169134548000                       # Cumulative time (in ticks) in various power states
system.cpu.dtb.instHits                             0                       # ITB inst hits
system.cpu.dtb.instMisses                           0                       # ITB inst misses
system.cpu.dtb.readHits                             0                       # DTB read hits
system.cpu.dtb.readMisses                           0                       # DTB read misses
system.cpu.dtb.writeHits                            0                       # DTB write hits
system.cpu.dtb.writeMisses                          0                       # DTB write misses
system.cpu.dtb.inserts                              0                       # Number of times an entry is inserted into the TLB
system.cpu.dtb.flushTlb                             0                       # Number of times complete TLB was flushed
system.cpu.dtb.flushTlbMva                          0                       # Number of times TLB was flushed by MVA
system.cpu.dtb.flushTlbMvaAsid                      0                       # Number of times TLB was flushed by MVA & ASID
system.cpu.dtb.flushTlbAsid                         0                       # Number of times TLB was flushed by ASID
system.cpu.dtb.flushedEntries                       0                       # Number of entries that have been flushed from TLB
system.cpu.dtb.alignFaults                          0                       # Number of TLB faults due to alignment restrictions
system.cpu.dtb.prefetchFaults                       0                       # Number of TLB faults due to prefetch
system.cpu.dtb.domainFaults                         0                       # Number of TLB faults due to domain restrictions
system.cpu.dtb.permsFaults                          0                       # Number of TLB faults due to permissions restrictions
system.cpu.dtb.readAccesses                         0                       # DTB read accesses
system.cpu.dtb.writeAccesses                        0                       # DTB write accesses
system.cpu.dtb.instAccesses                         0                       # ITB inst accesses
system.cpu.dtb.hits                                 0                       # Total TLB (inst and data) hits
system.cpu.dtb.misses                               0                       # Total TLB (inst and data) misses
system.cpu.dtb.accesses                             0                       # Total TLB (inst and data) accesses
system.cpu.dtb.stage2_mmu.stage2_tlb.instHits            0                       # ITB inst hits
system.cpu.dtb.stage2_mmu.stage2_tlb.instMisses            0                       # ITB inst misses
system.cpu.dtb.stage2_mmu.stage2_tlb.readHits            0                       # DTB read hits
system.cpu.dtb.stage2_mmu.stage2_tlb.readMisses            0                       # DTB read misses
system.cpu.dtb.stage2_mmu.stage2_tlb.writeHits            0                       # DTB write hits
system.cpu.dtb.stage2_mmu.stage2_tlb.writeMisses            0                       # DTB write misses
system.cpu.dtb.stage2_mmu.stage2_tlb.inserts            0                       # Number of times an entry is inserted into the TLB
system.cpu.dtb.stage2_mmu.stage2_tlb.flushTlb            0                       # Number of times complete TLB was flushed
system.cpu.dtb.stage2_mmu.stage2_tlb.flushTlbMva            0                       # Number of times TLB was flushed by MVA
system.cpu.dtb.stage2_mmu.stage2_tlb.flushTlbMvaAsid            0                       # Number of times TLB was flushed by MVA & ASID
system.cpu.dtb.stage2_mmu.stage2_tlb.flushTlbAsid            0                       # Number of times TLB was flushed by ASID
system.cpu.dtb.stage2_mmu.stage2_tlb.flushedEntries            0                       # Number of entries that have been flushed from TLB
system.cpu.dtb.stage2_mmu.stage2_tlb.alignFaults            0                       # Number of TLB faults due to alignment restrictions
system.cpu.dtb.stage2_mmu.stage2_tlb.prefetchFaults            0                       # Number of TLB faults due to prefetch
system.cpu.dtb.stage2_mmu.stage2_tlb.domainFaults            0                       # Number of TLB faults due to domain restrictions
system.cpu.dtb.stage2_mmu.stage2_tlb.permsFaults            0                       # Number of TLB faults due to permissions restrictions
system.cpu.dtb.stage2_mmu.stage2_tlb.readAccesses            0                       # DTB read accesses
system.cpu.dtb.stage2_mmu.stage2_tlb.writeAccesses            0                       # DTB write accesses
system.cpu.dtb.stage2_mmu.stage2_tlb.instAccesses            0                       # ITB inst accesses
system.cpu.dtb.stage2_mmu.stage2_tlb.hits            0                       # Total TLB (inst and data) hits
system.cpu.dtb.stage2_mmu.stage2_tlb.misses            0                       # Total TLB (inst and data) misses
system.cpu.dtb.stage2_mmu.stage2_tlb.accesses            0                       # Total TLB (inst and data) accesses
system.cpu.dtb.stage2_mmu.stage2_tlb.walker.walks            0                       # Table walker walks requested
system.cpu.dtb.stage2_mmu.stage2_tlb.walker.requestOrigin_Requested::Data            0                       # Table walker requests started/completed, data/inst
system.cpu.dtb.stage2_mmu.stage2_tlb.walker.requestOrigin_Requested::Inst            0                       # Table walker requests started/completed, data/inst
system.cpu.dtb.stage2_mmu.stage2_tlb.walker.requestOrigin_Requested::total            0                       # Table walker requests started/completed, data/inst
system.cpu.dtb.stage2_mmu.stage2_tlb.walker.requestOrigin_Completed::Data            0                       # Table walker requests started/completed, data/inst
system.cpu.dtb.stage2_mmu.stage2_tlb.walker.requestOrigin_Completed::Inst            0                       # Table walker requests started/completed, data/inst
system.cpu.dtb.stage2_mmu.stage2_tlb.walker.requestOrigin_Completed::total            0                       # Table walker requests started/completed, data/inst
system.cpu.dtb.stage2_mmu.stage2_tlb.walker.requestOrigin::total            0                       # Table walker requests started/completed, data/inst
system.cpu.dtb.stage2_mmu.stage2_tlb.walker.power_state.pwrStateResidencyTicks::UNDEFINED 169134548000                       # Cumulative time (in ticks) in various power states
system.cpu.dtb.walker.walks                         0                       # Table walker walks requested
system.cpu.dtb.walker.requestOrigin_Requested::Data            0                       # Table walker requests started/completed, data/inst
system.cpu.dtb.walker.requestOrigin_Requested::Inst            0                       # Table walker requests started/completed, data/inst
system.cpu.dtb.walker.requestOrigin_Requested::total            0                       # Table walker requests started/completed, data/inst
system.cpu.dtb.walker.requestOrigin_Completed::Data            0                       # Table walker requests started/completed, data/inst
system.cpu.dtb.walker.requestOrigin_Completed::Inst            0                       # Table walker requests started/completed, data/inst
system.cpu.dtb.walker.requestOrigin_Completed::total            0                       # Table walker requests started/completed, data/inst
system.cpu.dtb.walker.requestOrigin::total            0                       # Table walker requests started/completed, data/inst
system.cpu.dtb.walker.power_state.pwrStateResidencyTicks::UNDEFINED 169134548000                       # Cumulative time (in ticks) in various power states
system.cpu.fetch2.intInstructions            49675091                       # Number of integer instructions successfully decoded
system.cpu.fetch2.fpInstructions                    0                       # Number of floating point instructions successfully decoded
system.cpu.fetch2.vecInstructions                   0                       # Number of SIMD instructions successfully decoded
system.cpu.fetch2.loadInstructions           37096844                       # Number of memory load instructions successfully decoded
system.cpu.fetch2.storeInstructions          13161159                       # Number of memory store instructions successfully decoded
system.cpu.fetch2.amoInstructions                   0                       # Number of memory atomic instructions successfully decoded
system.cpu.icache.demand_hits::.cpu.inst      3052058                       # number of demand (read+write) hits
system.cpu.icache.demand_hits::total          3052058                       # number of demand (read+write) hits
system.cpu.icache.overall_hits::.cpu.inst      3052058                       # number of overall hits
system.cpu.icache.overall_hits::total         3052058                       # number of overall hits
system.cpu.icache.demand_misses::.cpu.inst          365                       # number of demand (read+write) misses
system.cpu.icache.demand_misses::total            365                       # number of demand (read+write) misses
system.cpu.icache.overall_misses::.cpu.inst          365                       # number of overall misses
system.cpu.icache.overall_misses::total           365                       # number of overall misses
system.cpu.icache.demand_miss_latency::.cpu.inst     31544000                       # number of demand (read+write) miss cycles
system.cpu.icache.demand_miss_latency::total     31544000                       # number of demand (read+write) miss cycles
system.cpu.icache.overall_miss_latency::.cpu.inst     31544000                       # number of overall miss cycles
system.cpu.icache.overall_miss_latency::total     31544000                       # number of overall miss cycles
system.cpu.icache.demand_accesses::.cpu.inst      3052423                       # number of demand (read+write) accesses
system.cpu.icache.demand_accesses::total      3052423                       # number of demand (read+write) accesses
system.cpu.icache.overall_accesses::.cpu.inst      3052423                       # number of overall (read+write) accesses
system.cpu.icache.overall_accesses::total      3052423                       # number of overall (read+write) accesses
system.cpu.icache.demand_miss_rate::.cpu.inst     0.000120                       # miss rate for demand accesses
system.cpu.icache.demand_miss_rate::total     0.000120                       # miss rate for demand accesses
system.cpu.icache.overall_miss_rate::.cpu.inst     0.000120                       # miss rate for overall accesses
system.cpu.icache.overall_miss_rate::total     0.000120                       # miss rate for overall accesses
system.cpu.icache.demand_avg_miss_latency::.cpu.inst 86421.917808                       # average overall miss latency
system.cpu.icache.demand_avg_miss_latency::total 86421.917808                       # average overall miss latency
system.cpu.icache.overall_avg_miss_latency::.cpu.inst 86421.917808                       # average overall miss latency
system.cpu.icache.overall_avg_miss_latency::total 86421.917808                       # average overall miss latency
system.cpu.icache.blocked_cycles::no_mshrs            0                       # number of cycles access was blocked
system.cpu.icache.blocked_cycles::no_targets            0                       # number of cycles access was blocked
system.cpu.icache.blocked::no_mshrs                 0                       # number of cycles access was blocked
system.cpu.icache.blocked::no_targets               0                       # number of cycles access was blocked
system.cpu.icache.avg_blocked_cycles::no_mshrs          nan                       # average number of cycles each access was blocked
system.cpu.icache.avg_blocked_cycles::no_targets          nan                       # average number of cycles each access was blocked
system.cpu.icache.writebacks::.writebacks          216                       # number of writebacks
system.cpu.icache.writebacks::total               216                       # number of writebacks
system.cpu.icache.demand_mshr_misses::.cpu.inst          365                       # number of demand (read+write) MSHR misses
system.cpu.icache.demand_mshr_misses::total          365                       # number of demand (read+write) MSHR misses
system.cpu.icache.overall_mshr_misses::.cpu.inst          365                       # number of overall MSHR misses
system.cpu.icache.overall_mshr_misses::total          365                       # number of overall MSHR misses
system.cpu.icache.demand_mshr_miss_latency::.cpu.inst     30814000                       # number of demand (read+write) MSHR miss cycles
system.cpu.icache.demand_mshr_miss_latency::total     30814000                       # number of demand (read+write) MSHR miss cycles
system.cpu.icache.overall_mshr_miss_latency::.cpu.inst     30814000                       # number of overall MSHR miss cycles
system.cpu.icache.overall_mshr_miss_latency::total     30814000                       # number of overall MSHR miss cycles
system.cpu.icache.demand_mshr_miss_rate::.cpu.inst     0.000120                       # mshr miss rate for demand accesses
system.cpu.icache.demand_mshr_miss_rate::total     0.000120                       # mshr miss rate for demand accesses
system.cpu.icache.overall_mshr_miss_rate::.cpu.inst     0.000120                       # mshr miss rate for overall accesses
system.cpu.icache.overall_mshr_miss_rate::total     0.000120                       # mshr miss rate for overall accesses
system.cpu.icache.demand_avg_mshr_miss_latency::.cpu.inst 84421.917808                       # average overall mshr miss latency
system.cpu.icache.demand_avg_mshr_miss_latency::total 84421.917808                       # average overall mshr miss latency
system.cpu.icache.overall_avg_mshr_miss_latency::.cpu.inst 84421.917808                       # average overall mshr miss latency
system.cpu.icache.overall_avg_mshr_miss_latency::total 84421.917808                       # average overall mshr miss latency
system.cpu.icache.replacements                    216                       # number of replacements
system.cpu.icache.ReadReq_hits::.cpu.inst      3052058                       # number of ReadReq hits
system.cpu.icache.ReadReq_hits::total         3052058                       # number of ReadReq hits
system.cpu.icache.ReadReq_misses::.cpu.inst          365                       # number of ReadReq misses
system.cpu.icache.ReadReq_misses::total           365                       # number of ReadReq misses
system.cpu.icache.ReadReq_miss_latency::.cpu.inst     31544000                       # number of ReadReq miss cycles
system.cpu.icache.ReadReq_miss_latency::total     31544000                       # number of ReadReq miss cycles
system.cpu.icache.ReadReq_accesses::.cpu.inst      3052423                       # number of ReadReq accesses(hits+misses)
system.cpu.icache.ReadReq_accesses::total      3052423                       # number of ReadReq accesses(hits+misses)
system.cpu.icache.ReadReq_miss_rate::.cpu.inst     0.000120                       # miss rate for ReadReq accesses
system.cpu.icache.ReadReq_miss_rate::total     0.000120                       # miss rate for ReadReq accesses
system.cpu.icache.ReadReq_avg_miss_latency::.cpu.inst 86421.917808                       # average ReadReq miss latency
system.cpu.icache.ReadReq_avg_miss_latency::total 86421.917808                       # average ReadReq miss latency
system.cpu.icache.ReadReq_mshr_misses::.cpu.inst          365                       # number of ReadReq MSHR misses
system.cpu.icache.ReadReq_mshr_misses::total          365                       # number of ReadReq MSHR misses
system.cpu.icache.ReadReq_mshr_miss_latency::.cpu.inst     30814000                       # number of ReadReq MSHR miss cycles
system.cpu.icache.ReadReq_mshr_miss_latency::total     30814000                       # number of ReadReq MSHR miss cycles
system.cpu.icache.ReadReq_mshr_miss_rate::.cpu.inst     0.000120                       # mshr miss rate for ReadReq accesses
system.cpu.icache.ReadReq_mshr_miss_rate::total     0.000120                       # mshr miss rate for ReadReq accesses
system.cpu.icache.ReadReq_avg_mshr_miss_latency::.cpu.inst 84421.917808                       # average ReadReq mshr miss latency
system.cpu.icache.ReadReq_avg_mshr_miss_latency::total 84421.917808                       # average ReadReq mshr miss latency
system.cpu.icache.power_state.pwrStateResidencyTicks::UNDEFINED 169134548000                       # Cumulative time (in ticks) in various power states
system.cpu.icache.tags.tagsinuse           148.981826                       # Cycle average of tags in use
system.cpu.icache.tags.total_refs             3052423                       # Total number of references to valid blocks.
system.cpu.icache.tags.sampled_refs               365                       # Sample count of references to valid blocks.
system.cpu.icache.tags.avg_refs           8362.802740                       # Average number of references to valid blocks.
system.cpu.icache.tags.warmup_cycle            123000                       # Cycle when the warmup percentage was hit.
system.cpu.icache.tags.occ_blocks::.cpu.inst   148.981826                       # Average occupied blocks per requestor
system.cpu.icache.tags.occ_percent::.cpu.inst     0.581960                       # Average percentage of cache occupancy
system.cpu.icache.tags.occ_percent::total     0.581960                       # Average percentage of cache occupancy
system.cpu.icache.tags.occ_task_id_blocks::1024          149                       # Occupied blocks per task id
system.cpu.icache.tags.age_task_id_blocks_1024::4          149                       # Occupied blocks per task id
system.cpu.icache.tags.occ_task_id_percent::1024     0.582031                       # Percentage of cache occupancy per task id
system.cpu.icache.tags.tag_accesses           3052788                       # Number of tag accesses
system.cpu.icache.tags.data_accesses          3052788                       # Number of data accesses
system.cpu.icache.tags.power_state.pwrStateResidencyTicks::UNDEFINED 169134548000                       # Cumulative time (in ticks) in various power states
system.cpu.itb.instHits                             0                       # ITB inst hits
system.cpu.itb.instMisses                           0                       # ITB inst misses
system.cpu.itb.readHits                             0                       # DTB read hits
system.cpu.itb.readMisses                           0                       # DTB read misses
system.cpu.itb.writeHits                            0                       # DTB write hits
system.cpu.itb.writeMisses                          0                       # DTB write misses
system.cpu.itb.inserts                              0                       # Number of times an entry is inserted into the TLB
system.cpu.itb.flushTlb                             0                       # Number of times complete TLB was flushed
system.cpu.itb.flushTlbMva                          0                       # Number of times TLB was flushed by MVA
system.cpu.itb.flushTlbMvaAsid                      0                       # Number of times TLB was flushed by MVA & ASID
system.cpu.itb.flushTlbAsid                         0                       # Number of times TLB was flushed by ASID
system.cpu.itb.flushedEntries                       0                       # Number of entries that have been flushed from TLB
system.cpu.itb.alignFaults                          0                       # Number of TLB faults due to alignment restrictions
system.cpu.itb.prefetchFaults                       0                       # Number of TLB faults due to prefetch
system.cpu.itb.domainFaults                         0                       # Number of TLB faults due to domain restrictions
system.cpu.itb.permsFaults                          0                       # Number of TLB faults due to permissions restrictions
system.cpu.itb.readAccesses                         0                       # DTB read accesses
system.cpu.itb.writeAccesses                        0                       # DTB write accesses
system.cpu.itb.instAccesses                         0                       # ITB inst accesses
system.cpu.itb.hits                                 0                       # Total TLB (inst and data) hits
system.cpu.itb.misses                               0                       # Total TLB (inst and data) misses
system.cpu.itb.accesses                             0                       # Total TLB (inst and data) accesses
system.cpu.itb.stage2_mmu.stage2_tlb.instHits            0                       # ITB inst hits
system.cpu.itb.stage2_mmu.stage2_tlb.instMisses            0                       # ITB inst misses
system.cpu.itb.stage2_mmu.stage2_tlb.readHits            0                       # DTB read hits
system.cpu.itb.stage2_mmu.stage2_tlb.readMisses            0                       # DTB read misses
system.cpu.itb.stage2_mmu.stage2_tlb.writeHits            0                       # DTB write hits
system.cpu.itb.stage2_mmu.stage2_tlb.writeMisses            0                       # DTB write misses
system.cpu.itb.stage2_mmu.stage2_tlb.inserts            0                       # Number of times an entry is inserted into the TLB
system.cpu.itb.stage2_mmu.stage2_tlb.flushTlb            0                       # Number of times complete TLB was flushed
system.cpu.itb.stage2_mmu.stage2_tlb.flushTlbMva            0                       # Number of times TLB was flushed by MVA
system.cpu.itb.stage2_mmu.stage2_tlb.flushTlbMvaAsid            0                       # Number of times TLB was flushed by MVA & ASID
system.cpu.itb.stage2_mmu.stage2_tlb.flushTlbAsid            0                       # Number of times TLB was flushed by ASID
system.cpu.itb.stage2_mmu.stage2_tlb.flushedEntries            0                       # Number of entries that have been flushed from TLB
system.cpu.itb.stage2_mmu.stage2_tlb.alignFaults            0                       # Number of TLB faults due to alignment restrictions
system.cpu.itb.stage2_mmu.stage2_tlb.prefetchFaults            0                       # Number of TLB faults due to prefetch
system.cpu.itb.stage2_mmu.stage2_tlb.domainFaults            0                       # Number of TLB faults due to domain restrictions
system.cpu.itb.stage2_mmu.stage2_tlb.permsFaults            0                       # Number of TLB faults due to permissions restrictions
system.cpu.itb.stage2_mmu.stage2_tlb.readAccesses            0                       # DTB read accesses
system.cpu.itb.stage2_mmu.stage2_tlb.writeAccesses            0                       # DTB write accesses
system.cpu.itb.stage2_mmu.stage2_tlb.instAccesses            0                       # ITB inst accesses
system.cpu.itb.stage2_mmu.stage2_tlb.hits            0                       # Total TLB (inst and data) hits
system.cpu.itb.stage2_mmu.stage2_tlb.misses            0                       # Total TLB (inst and data) misses
system.cpu.itb.stage2_mmu.stage2_tlb.accesses            0                       # Total TLB (inst and data) accesses
system.cpu.itb.stage2_mmu.stage2_tlb.walker.walks            0                       # Table walker walks requested
system.cpu.itb.stage2_mmu.stage2_tlb.walker.requestOrigin_Requested::Data            0                       # Table walker requests started/completed, data/inst
system.cpu.itb.stage2_mmu.stage2_tlb.walker.requestOrigin_Requested::Inst            0                       # Table walker requests started/completed, data/inst
system.cpu.itb.stage2_mmu.stage2_tlb.walker.requestOrigin_Requested::total            0                       # Table walker requests started/completed, data/inst
system.cpu.itb.stage2_mmu.stage2_tlb.walker.requestOrigin_Completed::Data            0                       # Table walker requests started/completed, data/inst
system.cpu.itb.stage2_mmu.stage2_tlb.walker.requestOrigin_Completed::Inst            0                       # Table walker requests started/completed, data/inst
system.cpu.itb.stage2_mmu.stage2_tlb.walker.requestOrigin_Completed::total            0                       # Table walker requests started/completed, data/inst
system.cpu.itb.stage2_mmu.stage2_tlb.walker.requestOrigin::total            0                       # Table walker requests started/completed, data/inst
system.cpu.itb.stage2_mmu.stage2_tlb.walker.power_state.pwrStateResidencyTicks::UNDEFINED 169134548000                       # Cumulative time (in ticks) in various power states
system.cpu.itb.walker.walks                         0                       # Table walker walks requested
system.cpu.itb.walker.requestOrigin_Requested::Data            0                       # Table walker requests started/completed, data/inst
system.cpu.itb.walker.requestOrigin_Requested::Inst            0                       # Table walker requests started/completed, data/inst
system.cpu.itb.walker.requestOrigin_Requested::total            0                       # Table walker requests started/completed, data/inst
system.cpu.itb.walker.requestOrigin_Completed::Data            0                       # Table walker requests started/completed, data/inst
system.cpu.itb.walker.requestOrigin_Completed::Inst            0                       # Table walker requests started/completed, data/inst
system.cpu.itb.walker.requestOrigin_Completed::total            0                       # Table walker requests started/completed, data/inst
system.cpu.itb.walker.requestOrigin::total            0                       # Table walker requests started/completed, data/inst
system.cpu.itb.walker.power_state.pwrStateResidencyTicks::UNDEFINED 169134548000                       # Cumulative time (in ticks) in various power states
system.cpu.power_state.pwrStateResidencyTicks::ON 169134548000                       # Cumulative time (in ticks) in various power states
system.cpu.thread_0.numInsts                100000000                       # Number of Instructions committed
system.cpu.thread_0.numOps                  100003793                       # Number of Ops committed
system.cpu.thread_0.numMemRefs                      0                       # Number of Memory References
system.cpu_clk_domain.clock                      1000                       # Clock period in ticks
system.cpu_voltage_domain.voltage                   1                       # Voltage in Volts
system.l2.demand_hits::.cpu.inst                  134                       # number of demand (read+write) hits
system.l2.demand_hits::.cpu.data                90087                       # number of demand (read+write) hits
system.l2.demand_hits::total                    90221                       # number of demand (read+write) hits
system.l2.overall_hits::.cpu.inst                 134                       # number of overall hits
system.l2.overall_hits::.cpu.data               90087                       # number of overall hits
system.l2.overall_hits::total                   90221                       # number of overall hits
system.l2.demand_misses::.cpu.inst                231                       # number of demand (read+write) misses
system.l2.demand_misses::.cpu.data             371942                       # number of demand (read+write) misses
system.l2.demand_misses::total                 372173                       # number of demand (read+write) misses
system.l2.overall_misses::.cpu.inst               231                       # number of overall misses
system.l2.overall_misses::.cpu.data            371942                       # number of overall misses
system.l2.overall_misses::total                372173                       # number of overall misses
system.l2.demand_miss_latency::.cpu.inst     26485000                       # number of demand (read+write) miss cycles
system.l2.demand_miss_latency::.cpu.data  44246857000                       # number of demand (read+write) miss cycles
system.l2.demand_miss_latency::total      44273342000                       # number of demand (read+write) miss cycles
system.l2.overall_miss_latency::.cpu.inst     26485000                       # number of overall miss cycles
system.l2.overall_miss_latency::.cpu.data  44246857000                       # number of overall miss cycles
system.l2.overall_miss_latency::total     44273342000                       # number of overall miss cycles
system.l2.demand_accesses::.cpu.inst              365                       # number of demand (read+write) accesses
system.l2.demand_accesses::.cpu.data           462029                       # number of demand (read+write) accesses
system.l2.demand_accesses::total               462394                       # number of demand (read+write) accesses
system.l2.overall_accesses::.cpu.inst             365                       # number of overall (read+write) accesses
system.l2.overall_accesses::.cpu.data          462029                       # number of overall (read+write) accesses
system.l2.overall_accesses::total              462394                       # number of overall (read+write) accesses
system.l2.demand_miss_rate::.cpu.inst        0.632877                       # miss rate for demand accesses
system.l2.demand_miss_rate::.cpu.data        0.805019                       # miss rate for demand accesses
system.l2.demand_miss_rate::total            0.804883                       # miss rate for demand accesses
system.l2.overall_miss_rate::.cpu.inst       0.632877                       # miss rate for overall accesses
system.l2.overall_miss_rate::.cpu.data       0.805019                       # miss rate for overall accesses
system.l2.overall_miss_rate::total           0.804883                       # miss rate for overall accesses
system.l2.demand_avg_miss_latency::.cpu.inst 114653.679654                       # average overall miss latency
system.l2.demand_avg_miss_latency::.cpu.data 118961.711772                       # average overall miss latency
system.l2.demand_avg_miss_latency::total 118959.037867                       # average overall miss latency
system.l2.overall_avg_miss_latency::.cpu.inst 114653.679654                       # average overall miss latency
system.l2.overall_avg_miss_latency::.cpu.data 118961.711772                       # average overall miss latency
system.l2.overall_avg_miss_latency::total 118959.037867                       # average overall miss latency
system.l2.blocked_cycles::no_mshrs                  0                       # number of cycles access was blocked
system.l2.blocked_cycles::no_targets                0                       # number of cycles access was blocked
system.l2.blocked::no_mshrs                         0                       # number of cycles access was blocked
system.l2.blocked::no_targets                       0                       # number of cycles access was blocked
system.l2.avg_blocked_cycles::no_mshrs            nan                       # average number of cycles each access was blocked
system.l2.avg_blocked_cycles::no_targets          nan                       # average number of cycles each access was blocked
system.l2.writebacks::.writebacks              369846                       # number of writebacks
system.l2.writebacks::total                    369846                       # number of writebacks
system.l2.demand_mshr_hits::.cpu.inst               1                       # number of demand (read+write) MSHR hits
system.l2.demand_mshr_hits::.cpu.data               2                       # number of demand (read+write) MSHR hits
system.l2.demand_mshr_hits::total                   3                       # number of demand (read+write) MSHR hits
system.l2.overall_mshr_hits::.cpu.inst              1                       # number of overall MSHR hits
system.l2.overall_mshr_hits::.cpu.data              2                       # number of overall MSHR hits
system.l2.overall_mshr_hits::total                  3                       # number of overall MSHR hits
system.l2.demand_mshr_misses::.cpu.inst           230                       # number of demand (read+write) MSHR misses
system.l2.demand_mshr_misses::.cpu.data        371940                       # number of demand (read+write) MSHR misses
system.l2.demand_mshr_misses::total            372170                       # number of demand (read+write) MSHR misses
system.l2.overall_mshr_misses::.cpu.inst          230                       # number of overall MSHR misses
system.l2.overall_mshr_misses::.cpu.data       371940                       # number of overall MSHR misses
system.l2.overall_mshr_misses::total           372170                       # number of overall MSHR misses
system.l2.demand_mshr_miss_latency::.cpu.inst     21786000                       # number of demand (read+write) MSHR miss cycles
system.l2.demand_mshr_miss_latency::.cpu.data  36807665000                       # number of demand (read+write) MSHR miss cycles
system.l2.demand_mshr_miss_latency::total  36829451000                       # number of demand (read+write) MSHR miss cycles
system.l2.overall_mshr_miss_latency::.cpu.inst     21786000                       # number of overall MSHR miss cycles
system.l2.overall_mshr_miss_latency::.cpu.data  36807665000                       # number of overall MSHR miss cycles
system.l2.overall_mshr_miss_latency::total  36829451000                       # number of overall MSHR miss cycles
system.l2.demand_mshr_miss_rate::.cpu.inst     0.630137                       # mshr miss rate for demand accesses
system.l2.demand_mshr_miss_rate::.cpu.data     0.805014                       # mshr miss rate for demand accesses
system.l2.demand_mshr_miss_rate::total       0.804876                       # mshr miss rate for demand accesses
system.l2.overall_mshr_miss_rate::.cpu.inst     0.630137                       # mshr miss rate for overall accesses
system.l2.overall_mshr_miss_rate::.cpu.data     0.805014                       # mshr miss rate for overall accesses
system.l2.overall_mshr_miss_rate::total      0.804876                       # mshr miss rate for overall accesses
system.l2.demand_avg_mshr_miss_latency::.cpu.inst 94721.739130                       # average overall mshr miss latency
system.l2.demand_avg_mshr_miss_latency::.cpu.data 98961.297521                       # average overall mshr miss latency
system.l2.demand_avg_mshr_miss_latency::total 98958.677486                       # average overall mshr miss latency
system.l2.overall_avg_mshr_miss_latency::.cpu.inst 94721.739130                       # average overall mshr miss latency
system.l2.overall_avg_mshr_miss_latency::.cpu.data 98961.297521                       # average overall mshr miss latency
system.l2.overall_avg_mshr_miss_latency::total 98958.677486                       # average overall mshr miss latency
system.l2.replacements                         370122                       # number of replacements
system.l2.WritebackDirty_hits::.writebacks       438450                       # number of WritebackDirty hits
system.l2.WritebackDirty_hits::total           438450                       # number of WritebackDirty hits
system.l2.WritebackDirty_accesses::.writebacks       438450                       # number of WritebackDirty accesses(hits+misses)
system.l2.WritebackDirty_accesses::total       438450                       # number of WritebackDirty accesses(hits+misses)
system.l2.WritebackClean_hits::.writebacks          196                       # number of WritebackClean hits
system.l2.WritebackClean_hits::total              196                       # number of WritebackClean hits
system.l2.WritebackClean_accesses::.writebacks          196                       # number of WritebackClean accesses(hits+misses)
system.l2.WritebackClean_accesses::total          196                       # number of WritebackClean accesses(hits+misses)
system.l2.ReadExReq_hits::.cpu.data             43576                       # number of ReadExReq hits
system.l2.ReadExReq_hits::total                 43576                       # number of ReadExReq hits
system.l2.ReadExReq_misses::.cpu.data          371882                       # number of ReadExReq misses
system.l2.ReadExReq_misses::total              371882                       # number of ReadExReq misses
system.l2.ReadExReq_miss_latency::.cpu.data  44239270000                       # number of ReadExReq miss cycles
system.l2.ReadExReq_miss_latency::total   44239270000                       # number of ReadExReq miss cycles
system.l2.ReadExReq_accesses::.cpu.data        415458                       # number of ReadExReq accesses(hits+misses)
system.l2.ReadExReq_accesses::total            415458                       # number of ReadExReq accesses(hits+misses)
system.l2.ReadExReq_miss_rate::.cpu.data     0.895113                       # miss rate for ReadExReq accesses
system.l2.ReadExReq_miss_rate::total         0.895113                       # miss rate for ReadExReq accesses
system.l2.ReadExReq_avg_miss_latency::.cpu.data 118960.503601                       # average ReadExReq miss latency
system.l2.ReadExReq_avg_miss_latency::total 118960.503601                       # average ReadExReq miss latency
system.l2.ReadExReq_mshr_misses::.cpu.data       371882                       # number of ReadExReq MSHR misses
system.l2.ReadExReq_mshr_misses::total         371882                       # number of ReadExReq MSHR misses
system.l2.ReadExReq_mshr_miss_latency::.cpu.data  36801630000                       # number of ReadExReq MSHR miss cycles
system.l2.ReadExReq_mshr_miss_latency::total  36801630000                       # number of ReadExReq MSHR miss cycles
system.l2.ReadExReq_mshr_miss_rate::.cpu.data     0.895113                       # mshr miss rate for ReadExReq accesses
system.l2.ReadExReq_mshr_miss_rate::total     0.895113                       # mshr miss rate for ReadExReq accesses
system.l2.ReadExReq_avg_mshr_miss_latency::.cpu.data 98960.503601                       # average ReadExReq mshr miss latency
system.l2.ReadExReq_avg_mshr_miss_latency::total 98960.503601                       # average ReadExReq mshr miss latency
system.l2.ReadCleanReq_hits::.cpu.inst            134                       # number of ReadCleanReq hits
system.l2.ReadCleanReq_hits::total                134                       # number of ReadCleanReq hits
system.l2.ReadCleanReq_misses::.cpu.inst          231                       # number of ReadCleanReq misses
system.l2.ReadCleanReq_misses::total              231                       # number of ReadCleanReq misses
system.l2.ReadCleanReq_miss_latency::.cpu.inst     26485000                       # number of ReadCleanReq miss cycles
system.l2.ReadCleanReq_miss_latency::total     26485000                       # number of ReadCleanReq miss cycles
system.l2.ReadCleanReq_accesses::.cpu.inst          365                       # number of ReadCleanReq accesses(hits+misses)
system.l2.ReadCleanReq_accesses::total            365                       # number of ReadCleanReq accesses(hits+misses)
system.l2.ReadCleanReq_miss_rate::.cpu.inst     0.632877                       # miss rate for ReadCleanReq accesses
system.l2.ReadCleanReq_miss_rate::total      0.632877                       # miss rate for ReadCleanReq accesses
system.l2.ReadCleanReq_avg_miss_latency::.cpu.inst 114653.679654                       # average ReadCleanReq miss latency
system.l2.ReadCleanReq_avg_miss_latency::total 114653.679654                       # average ReadCleanReq miss latency
system.l2.ReadCleanReq_mshr_hits::.cpu.inst            1                       # number of ReadCleanReq MSHR hits
system.l2.ReadCleanReq_mshr_hits::total             1                       # number of ReadCleanReq MSHR hits
system.l2.ReadCleanReq_mshr_misses::.cpu.inst          230                       # number of ReadCleanReq MSHR misses
system.l2.ReadCleanReq_mshr_misses::total          230                       # number of ReadCleanReq MSHR misses
system.l2.ReadCleanReq_mshr_miss_latency::.cpu.inst     21786000                       # number of ReadCleanReq MSHR miss cycles
system.l2.ReadCleanReq_mshr_miss_latency::total     21786000                       # number of ReadCleanReq MSHR miss cycles
system.l2.ReadCleanReq_mshr_miss_rate::.cpu.inst     0.630137                       # mshr miss rate for ReadCleanReq accesses
system.l2.ReadCleanReq_mshr_miss_rate::total     0.630137                       # mshr miss rate for ReadCleanReq accesses
system.l2.ReadCleanReq_avg_mshr_miss_latency::.cpu.inst 94721.739130                       # average ReadCleanReq mshr miss latency
system.l2.ReadCleanReq_avg_mshr_miss_latency::total 94721.739130                       # average ReadCleanReq mshr miss latency
system.l2.ReadSharedReq_hits::.cpu.data         46511                       # number of ReadSharedReq hits
system.l2.ReadSharedReq_hits::total             46511                       # number of ReadSharedReq hits
system.l2.ReadSharedReq_misses::.cpu.data           60                       # number of ReadSharedReq misses
system.l2.ReadSharedReq_misses::total              60                       # number of ReadSharedReq misses
system.l2.ReadSharedReq_miss_latency::.cpu.data      7587000                       # number of ReadSharedReq miss cycles
system.l2.ReadSharedReq_miss_latency::total      7587000                       # number of ReadSharedReq miss cycles
system.l2.ReadSharedReq_accesses::.cpu.data        46571                       # number of ReadSharedReq accesses(hits+misses)
system.l2.ReadSharedReq_accesses::total         46571                       # number of ReadSharedReq accesses(hits+misses)
system.l2.ReadSharedReq_miss_rate::.cpu.data     0.001288                       # miss rate for ReadSharedReq accesses
system.l2.ReadSharedReq_miss_rate::total     0.001288                       # miss rate for ReadSharedReq accesses
system.l2.ReadSharedReq_avg_miss_latency::.cpu.data       126450                       # average ReadSharedReq miss latency
system.l2.ReadSharedReq_avg_miss_latency::total       126450                       # average ReadSharedReq miss latency
system.l2.ReadSharedReq_mshr_hits::.cpu.data            2                       # number of ReadSharedReq MSHR hits
system.l2.ReadSharedReq_mshr_hits::total            2                       # number of ReadSharedReq MSHR hits
system.l2.ReadSharedReq_mshr_misses::.cpu.data           58                       # number of ReadSharedReq MSHR misses
system.l2.ReadSharedReq_mshr_misses::total           58                       # number of ReadSharedReq MSHR misses
system.l2.ReadSharedReq_mshr_miss_latency::.cpu.data      6035000                       # number of ReadSharedReq MSHR miss cycles
system.l2.ReadSharedReq_mshr_miss_latency::total      6035000                       # number of ReadSharedReq MSHR miss cycles
system.l2.ReadSharedReq_mshr_miss_rate::.cpu.data     0.001245                       # mshr miss rate for ReadSharedReq accesses
system.l2.ReadSharedReq_mshr_miss_rate::total     0.001245                       # mshr miss rate for ReadSharedReq accesses
system.l2.ReadSharedReq_avg_mshr_miss_latency::.cpu.data 104051.724138                       # average ReadSharedReq mshr miss latency
system.l2.ReadSharedReq_avg_mshr_miss_latency::total 104051.724138                       # average ReadSharedReq mshr miss latency
system.l2.power_state.pwrStateResidencyTicks::UNDEFINED 169134548000                       # Cumulative time (in ticks) in various power states
system.l2.tags.tagsinuse                  2043.018664                       # Cycle average of tags in use
system.l2.tags.total_refs                      901093                       # Total number of references to valid blocks.
system.l2.tags.sampled_refs                    372170                       # Sample count of references to valid blocks.
system.l2.tags.avg_refs                      2.421187                       # Average number of references to valid blocks.
system.l2.tags.warmup_cycle                    102000                       # Cycle when the warmup percentage was hit.
system.l2.tags.occ_blocks::.cpu.inst         1.961810                       # Average occupied blocks per requestor
system.l2.tags.occ_blocks::.cpu.data      2041.056853                       # Average occupied blocks per requestor
system.l2.tags.occ_percent::.cpu.inst        0.000958                       # Average percentage of cache occupancy
system.l2.tags.occ_percent::.cpu.data        0.996610                       # Average percentage of cache occupancy
system.l2.tags.occ_percent::total            0.997568                       # Average percentage of cache occupancy
system.l2.tags.occ_task_id_blocks::1024          2048                       # Occupied blocks per task id
system.l2.tags.age_task_id_blocks_1024::0           23                       # Occupied blocks per task id
system.l2.tags.age_task_id_blocks_1024::1          200                       # Occupied blocks per task id
system.l2.tags.age_task_id_blocks_1024::2         1823                       # Occupied blocks per task id
system.l2.tags.age_task_id_blocks_1024::4            2                       # Occupied blocks per task id
system.l2.tags.occ_task_id_percent::1024            1                       # Percentage of cache occupancy per task id
system.l2.tags.tag_accesses                   2174362                       # Number of tag accesses
system.l2.tags.data_accesses                  2174362                       # Number of data accesses
system.l2.tags.power_state.pwrStateResidencyTicks::UNDEFINED 169134548000                       # Cumulative time (in ticks) in various power states
system.mem_ctrls.avgPriority_.writebacks::samples   1479384.00                       # Average QoS priority value for accepted requests
system.mem_ctrls.avgPriority_.cpu.inst::samples       920.00                       # Average QoS priority value for accepted requests
system.mem_ctrls.avgPriority_.cpu.data::samples   1487760.00                       # Average QoS priority value for accepted requests
system.mem_ctrls.priorityMinLatency      0.000000018750                       # per QoS priority minimum request to response latency (s)
system.mem_ctrls.priorityMaxLatency      0.000907205750                       # per QoS priority maximum request to response latency (s)
system.mem_ctrls.numReadWriteTurnArounds        74137                       # Number of turnarounds from READ to WRITE
system.mem_ctrls.numWriteReadTurnArounds        74137                       # Number of turnarounds from WRITE to READ
system.mem_ctrls.numStayReadState             2271766                       # Number of times bus staying in READ state
system.mem_ctrls.numStayWriteState            1406411                       # Number of times bus staying in WRITE state
system.mem_ctrls.readReqs                      372170                       # Number of read requests accepted
system.mem_ctrls.writeReqs                     369846                       # Number of write requests accepted
system.mem_ctrls.readBursts                   1488680                       # Number of controller read bursts, including those serviced by the write queue
system.mem_ctrls.writeBursts                  1479384                       # Number of controller write bursts, including those merged in the write queue
system.mem_ctrls.servicedByWrQ                      0                       # Number of controller read bursts serviced by the write queue
system.mem_ctrls.mergedWrBursts                     0                       # Number of controller write bursts merged with an existing one
system.mem_ctrls.neitherReadNorWriteReqs            0                       # Number of requests that are neither read nor write
system.mem_ctrls.avgRdQLen                       4.00                       # Average read queue length when enqueuing
system.mem_ctrls.avgWrQLen                      27.02                       # Average write queue length when enqueuing
system.mem_ctrls.numRdRetry                         0                       # Number of times read queue was full causing retry
system.mem_ctrls.numWrRetry                         0                       # Number of times write queue was full causing retry
system.mem_ctrls.readPktSize::0                     0                       # Read request sizes (log2)
system.mem_ctrls.readPktSize::1                     0                       # Read request sizes (log2)
system.mem_ctrls.readPktSize::2                     0                       # Read request sizes (log2)
system.mem_ctrls.readPktSize::3                     0                       # Read request sizes (log2)
system.mem_ctrls.readPktSize::4                     0                       # Read request sizes (log2)
system.mem_ctrls.readPktSize::5                     0                       # Read request sizes (log2)
system.mem_ctrls.readPktSize::6               1488680                       # Read request sizes (log2)
system.mem_ctrls.readPktSize::7                     0                       # Read request sizes (log2)
system.mem_ctrls.readPktSize::8                     0                       # Read request sizes (log2)
system.mem_ctrls.writePktSize::0                    0                       # Write request sizes (log2)
system.mem_ctrls.writePktSize::1                    0                       # Write request sizes (log2)
system.mem_ctrls.writePktSize::2                    0                       # Write request sizes (log2)
system.mem_ctrls.writePktSize::3                    0                       # Write request sizes (log2)
system.mem_ctrls.writePktSize::4                    0                       # Write request sizes (log2)
system.mem_ctrls.writePktSize::5                    0                       # Write request sizes (log2)
system.mem_ctrls.writePktSize::6              1479384                       # Write request sizes (log2)
system.mem_ctrls.writePktSize::7                    0                       # Write request sizes (log2)
system.mem_ctrls.writePktSize::8                    0                       # Write request sizes (log2)
system.mem_ctrls.rdQLenPdf::0                  372140                       # What read queue length does an incoming req see
system.mem_ctrls.rdQLenPdf::1                  372140                       # What read queue length does an incoming req see
system.mem_ctrls.rdQLenPdf::2                  372140                       # What read queue length does an incoming req see
system.mem_ctrls.rdQLenPdf::3                  372143                       # What read queue length does an incoming req see
system.mem_ctrls.rdQLenPdf::4                      29                       # What read queue length does an incoming req see
system.mem_ctrls.rdQLenPdf::5                      29                       # What read queue length does an incoming req see
system.mem_ctrls.rdQLenPdf::6                      29                       # What read queue length does an incoming req see
system.mem_ctrls.rdQLenPdf::7                      26                       # What read queue length does an incoming req see
system.mem_ctrls.rdQLenPdf::8                       1                       # What read queue length does an incoming req see
[...]
system.mem_ctrls.dram.bw_write::.writebacks    559794419                       # Write bandwidth from this memory (bytes/s)
system.mem_ctrls.dram.bw_write::total       559794419                       # Write bandwidth from this memory (bytes/s)
system.mem_ctrls.dram.bw_total::.writebacks    559794419                       # Total bandwidth to/from this memory (bytes/s)
system.mem_ctrls.dram.bw_total::.cpu.inst       348125                       # Total bandwidth to/from this memory (bytes/s)
system.mem_ctrls.dram.bw_total::.cpu.data    562963872                       # Total bandwidth to/from this memory (bytes/s)
system.mem_ctrls.dram.bw_total::total      1123106416                       # Total bandwidth to/from this memory (bytes/s)
system.mem_ctrls.dram.readBursts              1488680                       # Number of DRAM read bursts
system.mem_ctrls.dram.writeBursts             1479361                       # Number of DRAM write bursts
system.mem_ctrls.dram.perBankRdBursts::0        93160                       # Per bank write bursts
system.mem_ctrls.dram.perBankRdBursts::1        92968                       # Per bank write bursts
system.mem_ctrls.dram.perBankRdBursts::2        93020                       # Per bank write bursts
system.mem_ctrls.dram.perBankRdBursts::3        92956                       # Per bank write bursts
system.mem_ctrls.dram.perBankRdBursts::4        93084                       # Per bank write bursts
system.mem_ctrls.dram.perBankRdBursts::5        93100                       # Per bank write bursts
system.mem_ctrls.dram.perBankRdBursts::6        93072                       # Per bank write bursts
system.mem_ctrls.dram.perBankRdBursts::7        93088                       # Per bank write bursts
system.mem_ctrls.dram.perBankRdBursts::8        93224                       # Per bank write bursts
system.mem_ctrls.dram.perBankRdBursts::9        92972                       # Per bank write bursts
system.mem_ctrls.dram.perBankRdBursts::10        92996                       # Per bank write bursts
system.mem_ctrls.dram.perBankRdBursts::11        92980                       # Per bank write bursts
system.mem_ctrls.dram.perBankRdBursts::12        93052                       # Per bank write bursts
system.mem_ctrls.dram.perBankRdBursts::13        92988                       # Per bank write bursts
system.mem_ctrls.dram.perBankRdBursts::14        92992                       # Per bank write bursts
system.mem_ctrls.dram.perBankRdBursts::15        93028                       # Per bank write bursts
system.mem_ctrls.dram.perBankWrBursts::0        92496                       # Per bank write bursts
system.mem_ctrls.dram.perBankWrBursts::1        92448                       # Per bank write bursts
system.mem_ctrls.dram.perBankWrBursts::2        92440                       # Per bank write bursts
system.mem_ctrls.dram.perBankWrBursts::3        92428                       # Per bank write bursts
system.mem_ctrls.dram.perBankWrBursts::4        92484                       # Per bank write bursts
system.mem_ctrls.dram.perBankWrBursts::5        92544                       # Per bank write bursts
system.mem_ctrls.dram.perBankWrBursts::6        92544                       # Per bank write bursts
system.mem_ctrls.dram.perBankWrBursts::7        92544                       # Per bank write bursts
system.mem_ctrls.dram.perBankWrBursts::8        92513                       # Per bank write bursts
system.mem_ctrls.dram.perBankWrBursts::9        92416                       # Per bank write bursts
system.mem_ctrls.dram.perBankWrBursts::10        92416                       # Per bank write bursts
system.mem_ctrls.dram.perBankWrBursts::11        92416                       # Per bank write bursts
system.mem_ctrls.dram.perBankWrBursts::12        92416                       # Per bank write bursts
system.mem_ctrls.dram.perBankWrBursts::13        92416                       # Per bank write bursts
system.mem_ctrls.dram.perBankWrBursts::14        92416                       # Per bank write bursts
system.mem_ctrls.dram.perBankWrBursts::15        92424                       # Per bank write bursts
system.mem_ctrls.dram.totQLat             31726711500                       # Total ticks spent queuing
system.mem_ctrls.dram.totBusLat            7443400000                       # Total ticks spent in databus transfers
system.mem_ctrls.dram.totMemAccLat        59639461500                       # Total ticks spent from burst creation until serviced by the DRAM
system.mem_ctrls.dram.avgQLat                21311.98                       # Average queueing delay per DRAM burst
system.mem_ctrls.dram.avgBusLat               5000.00                       # Average bus latency per DRAM burst
system.mem_ctrls.dram.avgMemAccLat           40061.98                       # Average memory access latency per DRAM burst
system.mem_ctrls.dram.readRowHits             1338630                       # Number of row buffer hits during reads
system.mem_ctrls.dram.writeRowHits            1330462                       # Number of row buffer hits during writes
system.mem_ctrls.dram.readRowHitRate            89.92                       # Row buffer hit rate for reads
system.mem_ctrls.dram.writeRowHitRate           89.93                       # Row buffer hit rate for writes
system.mem_ctrls.dram.bytesPerActivate::samples       298948                       # Bytes accessed per row activation
system.mem_ctrls.dram.bytesPerActivate::mean   635.408539                       # Bytes accessed per row activation
system.mem_ctrls.dram.bytesPerActivate::gmean   514.815221                       # Bytes accessed per row activation
system.mem_ctrls.dram.bytesPerActivate::stdev   363.449599                       # Bytes accessed per row activation
system.mem_ctrls.dram.bytesPerActivate::0-127         3244      1.09%      1.09% # Bytes accessed per row activation
system.mem_ctrls.dram.bytesPerActivate::128-255         4754      1.59%      2.68% # Bytes accessed per row activation
system.mem_ctrls.dram.bytesPerActivate::256-383       121407     40.61%     43.29% # Bytes accessed per row activation
system.mem_ctrls.dram.bytesPerActivate::384-511         2409      0.81%     44.09% # Bytes accessed per row activation
system.mem_ctrls.dram.bytesPerActivate::512-639        19309      6.46%     50.55% # Bytes accessed per row activation
system.mem_ctrls.dram.bytesPerActivate::640-767         2264      0.76%     51.31% # Bytes accessed per row activation
system.mem_ctrls.dram.bytesPerActivate::768-895        15877      5.31%     56.62% # Bytes accessed per row activation
system.mem_ctrls.dram.bytesPerActivate::896-1023         3806      1.27%     57.89% # Bytes accessed per row activation
system.mem_ctrls.dram.bytesPerActivate::1024-1151       125878     42.11%    100.00% # Bytes accessed per row activation
system.mem_ctrls.dram.bytesPerActivate::total       298948                       # Bytes accessed per row activation
system.mem_ctrls.dram.bytesRead              95275520                       # Total number of bytes read from DRAM
system.mem_ctrls.dram.bytesWritten           94679104                       # Total number of bytes written to DRAM
system.mem_ctrls.dram.avgRdBW              563.311997                       # Average DRAM read bandwidth in MiBytes/s
system.mem_ctrls.dram.avgWrBW              559.785716                       # Average DRAM write bandwidth in MiBytes/s
system.mem_ctrls.dram.peakBW                 12800.00                       # Theoretical peak bandwidth in MiByte/s
system.mem_ctrls.dram.busUtil                    8.77                       # Data bus utilization in percentage
system.mem_ctrls.dram.busUtilRead                4.40                       # Data bus utilization in percentage for reads
system.mem_ctrls.dram.busUtilWrite               4.37                       # Data bus utilization in percentage for writes
system.mem_ctrls.dram.pageHitRate               89.93                       # Row buffer hit rate, read and write combined
system.mem_ctrls.dram.power_state.pwrStateResidencyTicks::UNDEFINED 169134548000                       # Cumulative time (in ticks) in various power states
system.mem_ctrls.dram.rank0.actEnergy      1068843720                       # Energy for activate commands per rank (pJ)
system.mem_ctrls.dram.rank0.preEnergy       568103910                       # Energy for precharge commands per rank (pJ)
system.mem_ctrls.dram.rank0.readEnergy     5315358720                       # Energy for read commands per rank (pJ)
system.mem_ctrls.dram.rank0.writeEnergy    3862424160                       # Energy for write commands per rank (pJ)
system.mem_ctrls.dram.rank0.refreshEnergy 13351210080.000002                       # Energy for refresh commands per rank (pJ)
system.mem_ctrls.dram.rank0.actBackEnergy  37275869340                       # Energy for active background per rank (pJ)
system.mem_ctrls.dram.rank0.preBackEnergy  33557460960                       # Energy for precharge background per rank (pJ)
system.mem_ctrls.dram.rank0.actPowerDownEnergy            0                       # Energy for active power-down per rank (pJ)
system.mem_ctrls.dram.rank0.prePowerDownEnergy            0                       # Energy for precharge power-down per rank (pJ)
system.mem_ctrls.dram.rank0.selfRefreshEnergy            0                       # Energy for self refresh per rank (pJ)
system.mem_ctrls.dram.rank0.totalEnergy   94999270890                       # Total energy per rank (pJ)
system.mem_ctrls.dram.rank0.averagePower   561.678687                       # Core power per rank (mW)
system.mem_ctrls.dram.rank0.totalIdleTime            0                       # Total Idle time Per DRAM Rank
system.mem_ctrls.dram.rank0.pwrStateTime::IDLE  85852261000                       # Time in different power states
system.mem_ctrls.dram.rank0.pwrStateTime::REF   5647720000                       # Time in different power states
system.mem_ctrls.dram.rank0.pwrStateTime::SREF            0                       # Time in different power states
system.mem_ctrls.dram.rank0.pwrStateTime::PRE_PDN            0                       # Time in different power states
system.mem_ctrls.dram.rank0.pwrStateTime::ACT  77634567000                       # Time in different power states
system.mem_ctrls.dram.rank0.pwrStateTime::ACT_PDN            0                       # Time in different power states
system.mem_ctrls.dram.rank1.actEnergy      1065652140                       # Energy for activate commands per rank (pJ)
system.mem_ctrls.dram.rank1.preEnergy       566403750                       # Energy for precharge commands per rank (pJ)
system.mem_ctrls.dram.rank1.readEnergy     5313816480                       # Energy for read commands per rank (pJ)
system.mem_ctrls.dram.rank1.writeEnergy    3859840260                       # Energy for write commands per rank (pJ)
system.mem_ctrls.dram.rank1.refreshEnergy 13351210080.000002                       # Energy for refresh commands per rank (pJ)
system.mem_ctrls.dram.rank1.actBackEnergy  37084492980                       # Energy for active background per rank (pJ)
system.mem_ctrls.dram.rank1.preBackEnergy  33718620000                       # Energy for precharge background per rank (pJ)
system.mem_ctrls.dram.rank1.actPowerDownEnergy            0                       # Energy for active power-down per rank (pJ)
system.mem_ctrls.dram.rank1.prePowerDownEnergy            0                       # Energy for precharge power-down per rank (pJ)
system.mem_ctrls.dram.rank1.selfRefreshEnergy            0                       # Energy for self refresh per rank (pJ)
system.mem_ctrls.dram.rank1.totalEnergy   94960035690                       # Total energy per rank (pJ)
system.mem_ctrls.dram.rank1.averagePower   561.446711                       # Core power per rank (mW)
system.mem_ctrls.dram.rank1.totalIdleTime            0                       # Total Idle time Per DRAM Rank
system.mem_ctrls.dram.rank1.pwrStateTime::IDLE  86243272500                       # Time in different power states
system.mem_ctrls.dram.rank1.pwrStateTime::REF   5647720000                       # Time in different power states
system.mem_ctrls.dram.rank1.pwrStateTime::SREF            0                       # Time in different power states
system.mem_ctrls.dram.rank1.pwrStateTime::PRE_PDN            0                       # Time in different power states
system.mem_ctrls.dram.rank1.pwrStateTime::ACT  77243555500                       # Time in different power states
system.mem_ctrls.dram.rank1.pwrStateTime::ACT_PDN            0                       # Time in different power states
system.mem_ctrls.power_state.pwrStateResidencyTicks::UNDEFINED 169134548000                       # Cumulative time (in ticks) in various power states
system.membus.trans_dist::ReadResp                288                       # Transaction distribution
system.membus.trans_dist::WritebackDirty       369846                       # Transaction distribution
system.membus.trans_dist::CleanEvict              128                       # Transaction distribution
system.membus.trans_dist::ReadExReq            371882                       # Transaction distribution
system.membus.trans_dist::ReadExResp           371882                       # Transaction distribution
system.membus.trans_dist::ReadSharedReq           288                       # Transaction distribution
system.membus.pkt_count_system.l2.mem_side_port::system.mem_ctrls.port      1114314                       # Packet count per connected requestor and responder (bytes)
system.membus.pkt_count::total                1114314                       # Packet count per connected requestor and responder (bytes)
system.membus.pkt_size_system.l2.mem_side_port::system.mem_ctrls.port    189956096                       # Cumulative packet size per connected requestor and responder (bytes)
system.membus.pkt_size::total               189956096                       # Cumulative packet size per connected requestor and responder (bytes)
system.membus.snoops                                0                       # Total snoops (count)
system.membus.snoopTraffic                          0                       # Total snoop traffic (bytes)
system.membus.snoop_fanout::samples            372170                       # Request fanout histogram
system.membus.snoop_fanout::mean                    0                       # Request fanout histogram
system.membus.snoop_fanout::stdev                   0                       # Request fanout histogram
system.membus.snoop_fanout::underflows              0      0.00%      0.00% # Request fanout histogram
system.membus.snoop_fanout::0                  372170    100.00%    100.00% # Request fanout histogram
system.membus.snoop_fanout::1                       0      0.00%    100.00% # Request fanout histogram
system.membus.snoop_fanout::overflows               0      0.00%    100.00% # Request fanout histogram
system.membus.snoop_fanout::min_value               0                       # Request fanout histogram
system.membus.snoop_fanout::max_value               0                       # Request fanout histogram
system.membus.snoop_fanout::total              372170                       # Request fanout histogram
system.membus.power_state.pwrStateResidencyTicks::UNDEFINED 169134548000                       # Cumulative time (in ticks) in various power states
system.membus.reqLayer0.occupancy          6659680000                       # Layer occupancy (ticks)
system.membus.reqLayer0.utilization               3.9                       # Layer utilization (%)
system.membus.respLayer1.occupancy         6472391250                       # Layer occupancy (ticks)
system.membus.respLayer1.utilization              3.8                       # Layer utilization (%)
system.tol2bus.trans_dist::ReadResp             46936                       # Transaction distribution
system.tol2bus.trans_dist::WritebackDirty       808296                       # Transaction distribution
system.tol2bus.trans_dist::WritebackClean          216                       # Transaction distribution
system.tol2bus.trans_dist::CleanEvict           23599                       # Transaction distribution
system.tol2bus.trans_dist::ReadExReq           415458                       # Transaction distribution
system.tol2bus.trans_dist::ReadExResp          415458                       # Transaction distribution
system.tol2bus.trans_dist::ReadCleanReq           365                       # Transaction distribution
system.tol2bus.trans_dist::ReadSharedReq        46571                       # Transaction distribution
system.tol2bus.pkt_count_system.cpu.icache.mem_side_port::system.l2.cpu_side_port          946                       # Packet count per connected requestor and responder (bytes)
system.tol2bus.pkt_count_system.cpu.dcache.mem_side_port::system.l2.cpu_side_port      1385831                       # Packet count per connected requestor and responder (bytes)
system.tol2bus.pkt_count::total               1386777                       # Packet count per connected requestor and responder (bytes)
system.tol2bus.pkt_size_system.cpu.icache.mem_side_port::system.l2.cpu_side_port       148736                       # Cumulative packet size per connected requestor and responder (bytes)
system.tol2bus.pkt_size_system.cpu.dcache.mem_side_port::system.l2.cpu_side_port    230522624                       # Cumulative packet size per connected requestor and responder (bytes)
system.tol2bus.pkt_size::total              230671360                       # Cumulative packet size per connected requestor and responder (bytes)
system.tol2bus.snoops                          370122                       # Total snoops (count)
system.tol2bus.snoopTraffic                  94680576                       # Total snoop traffic (bytes)
system.tol2bus.snoop_fanout::samples           832516                       # Request fanout histogram
system.tol2bus.snoop_fanout::mean            0.028151                       # Request fanout histogram
system.tol2bus.snoop_fanout::stdev           0.165404                       # Request fanout histogram
system.tol2bus.snoop_fanout::underflows             0      0.00%      0.00% # Request fanout histogram
system.tol2bus.snoop_fanout::0                 809080     97.18%     97.18% # Request fanout histogram
system.tol2bus.snoop_fanout::1                  23436      2.82%    100.00% # Request fanout histogram
system.tol2bus.snoop_fanout::2                      0      0.00%    100.00% # Request fanout histogram
system.tol2bus.snoop_fanout::overflows              0      0.00%    100.00% # Request fanout histogram
system.tol2bus.snoop_fanout::min_value              0                       # Request fanout histogram
system.tol2bus.snoop_fanout::max_value              1                       # Request fanout histogram
system.tol2bus.snoop_fanout::total             832516                       # Request fanout histogram
system.tol2bus.power_state.pwrStateResidencyTicks::UNDEFINED 169134548000                       # Cumulative time (in ticks) in various power states
system.tol2bus.reqLayer0.occupancy         4433711000                       # Layer occupancy (ticks)
system.tol2bus.reqLayer0.utilization              2.6                       # Layer utilization (%)
system.tol2bus.respLayer0.occupancy           3285999                       # Layer occupancy (ticks)
system.tol2bus.respLayer0.utilization             0.0                       # Layer utilization (%)
system.tol2bus.respLayer1.occupancy        4158262998                       # Layer occupancy (ticks)
system.tol2bus.respLayer1.utilization             2.5                       # Layer utilization (%)
system.voltage_domain.voltage                       1                       # Voltage in Volts

---------- End Simulation Statistics   ----------
