
---------- Begin Simulation Statistics ----------
final_tick                               264055067000                       # Number of ticks from beginning of simulation (restored from checkpoints and never reset)
host_inst_rate                                 396933                       # Simulator instruction rate (inst/s)
host_mem_usage                                 662156                       # Number of bytes of host memory used
host_op_rate                                   396948                       # Simulator op (including micro ops) rate (op/s)
host_seconds                                   251.93                       # Real time elapsed on the host
host_tick_rate                             1048120580                       # Simulator tick rate (ticks/s)
sim_freq                                 1000000000000                       # Frequency of simulated ticks
sim_insts                                   100000000                       # Number of instructions simulated
sim_ops                                     100003793                       # Number of ops (including micro ops) simulated
sim_seconds                                  0.264055                       # Number of seconds simulated
sim_ticks                                264055067000                       # Number of ticks simulated
system.cpu.committedInsts                   100000000                       # Number of instructions committed
system.cpu.committedOps                     100003793                       # Number of ops (including micro ops) committed
system.cpu.cpi                               2.640551                       # CPI: cycles per instruction
system.cpu.discardedOps                         21250                       # Number of ops (including micro ops) which were discarded before commit
system.cpu.idleCycles                       146666866                       # Total number of cycles that the object has spent stopped
system.cpu.ipc                               0.378709                       # IPC: instructions per cycle
system.cpu.numCycles                        264055067                       # number of cpu cycles simulated
system.cpu.numFetchSuspends                         0                       # Number of times Execute suspended instruction fetching
system.cpu.numWorkItemsCompleted                    0                       # number of work items this cpu completed
system.cpu.numWorkItemsStarted                      0                       # number of work items this cpu started
system.cpu.op_class_0::No_OpClass                   0      0.00%      0.00% # Class of committed instruction
system.cpu.op_class_0::IntAlu                49995768     49.99%     49.99% # Class of committed instruction
system.cpu.op_class_0::IntMult                     85      0.00%     49.99% # Class of committed instruction
system.cpu.op_class_0::IntDiv                       0      0.00%     49.99% # Class of committed instruction
system.cpu.op_class_0::FloatAdd                     0      0.00%     49.99% # Class of committed instruction
system.cpu.op_class_0::FloatCmp                     0      0.00%     49.99% # Class of committed instruction
system.cpu.op_class_0::FloatCvt                     0      0.00%     49.99% # Class of committed instruction
system.cpu.op_class_0::FloatMult                    0      0.00%     49.99% # Class of committed instruction
system.cpu.op_class_0::FloatMultAcc                 0      0.00%     49.99% # Class of committed instruction
system.cpu.op_class_0::FloatDiv                     0      0.00%     49.99% # Class of committed instruction
system.cpu.op_class_0::FloatMisc                    0      0.00%     49.99% # Class of committed instruction
system.cpu.op_class_0::FloatSqrt                    0      0.00%     49.99% # Class of committed instruction
system.cpu.op_class_0::SimdAdd                      0      0.00%     49.99% # Class of committed instruction
system.cpu.op_class_0::SimdAddAcc                   0      0.00%     49.99% # Class of committed instruction
system.cpu.op_class_0::SimdAlu                      0      0.00%     49.99% # Class of committed instruction
system.cpu.op_class_0::SimdCmp                      0      0.00%     49.99% # Class of committed instruction
system.cpu.op_class_0::SimdCvt                      0      0.00%     49.99% # Class of committed instruction
system.cpu.op_class_0::SimdMisc                     0      0.00%     49.99% # Class of committed instruction
system.cpu.op_class_0::SimdMult                     0      0.00%     49.99% # Class of committed instruction
system.cpu.op_class_0::SimdMultAcc                  0      0.00%     49.99% # Class of committed instruction
system.cpu.op_class_0::SimdShift                    0      0.00%     49.99% # Class of committed instruction
system.cpu.op_class_0::SimdShiftAcc                 0      0.00%     49.99% # Class of committed instruction
system.cpu.op_class_0::SimdDiv                      0      0.00%     49.99% # Class of committed instruction
system.cpu.op_class_0::SimdSqrt                     0      0.00%     49.99% # Class of committed instruction
system.cpu.op_class_0::SimdFloatAdd                 0      0.00%     49.99% # Class of committed instruction
system.cpu.op_class_0::SimdFloatAlu                 0      0.00%     49.99% # Class of committed instruction
system.cpu.op_class_0::SimdFloatCmp                 2      0.00%     49.99% # Class of committed instruction
system.cpu.op_class_0::SimdFloatCvt                 0      0.00%     49.99% # Class of committed instruction
system.cpu.op_class_0::SimdFloatDiv                 0      0.00%     49.99% # Class of committed instruction
system.cpu.op_class_0::SimdFloatMisc               22      0.00%     49.99% # Class of committed instruction
system.cpu.op_class_0::SimdFloatMult                0      0.00%     49.99% # Class of committed instruction
system.cpu.op_class_0::SimdFloatMultAcc             0      0.00%     49.99% # Class of committed instruction
system.cpu.op_class_0::SimdFloatSqrt                0      0.00%     49.99% # Class of committed instruction
system.cpu.op_class_0::SimdReduceAdd                0      0.00%     49.99% # Class of committed instruction
system.cpu.op_class_0::SimdReduceAlu                0      0.00%     49.99% # Class of committed instruction
system.cpu.op_class_0::SimdReduceCmp                0      0.00%     49.99% # Class of committed instruction
system.cpu.op_class_0::SimdFloatReduceAdd            0      0.00%     49.99% # Class of committed instruction
system.cpu.op_class_0::SimdFloatReduceCmp            0      0.00%     49.99% # Class of committed instruction
system.cpu.op_class_0::SimdAes                      0      0.00%     49.99% # Class of committed instruction
system.cpu.op_class_0::SimdAesMix                   0      0.00%     49.99% # Class of committed instruction
system.cpu.op_class_0::SimdSha1Hash                 0      0.00%     49.99% # Class of committed instruction
system.cpu.op_class_0::SimdSha1Hash2                0      0.00%     49.99% # Class of committed instruction
system.cpu.op_class_0::SimdSha256Hash               0      0.00%     49.99% # Class of committed instruction
system.cpu.op_class_0::SimdSha256Hash2              0      0.00%     49.99% # Class of committed instruction
system.cpu.op_class_0::SimdShaSigma2                0      0.00%     49.99% # Class of committed instruction
system.cpu.op_class_0::SimdShaSigma3                0      0.00%     49.99% # Class of committed instruction
system.cpu.op_class_0::SimdPredAlu                  0      0.00%     49.99% # Class of committed instruction
system.cpu.op_class_0::MemRead               36892130     36.89%     86.88% # Class of committed instruction
system.cpu.op_class_0::MemWrite              13115786     13.12%    100.00% # Class of committed instruction
system.cpu.op_class_0::FloatMemRead                 0      0.00%    100.00% # Class of committed instruction
system.cpu.op_class_0::FloatMemWrite                0      0.00%    100.00% # Class of committed instruction
system.cpu.op_class_0::IprAccess                    0      0.00%    100.00% # Class of committed instruction
system.cpu.op_class_0::InstPrefetch                 0      0.00%    100.00% # Class of committed instruction
system.cpu.op_class_0::total                100003793                       # Class of committed instruction
system.cpu.tickCycles                       117388201                       # Number of cycles that the object actually ticked
system.cpu.workload.numSyscalls                    18                       # Number of system calls
system.membus.snoop_filter.hit_multi_requests            0                       # Number of requests hitting in the snoop filter with multiple (>1) holders of the requested data.
system.membus.snoop_filter.hit_multi_snoops            0                       # Number of snoops hitting in the snoop filter with multiple (>1) holders of the requested data.
system.membus.snoop_filter.hit_single_requests      1479781                       # Number of requests hitting in the snoop filter with a single holder of the requested data.
system.membus.snoop_filter.hit_single_snoops            0                       # Number of snoops hitting in the snoop filter with a single holder of the requested data.
system.membus.snoop_filter.tot_requests       2967879                       # Total number of requests made to the snoop filter.
system.membus.snoop_filter.tot_snoops               0                       # Total number of snoops made to the snoop filter.
system.tol2bus.snoop_filter.hit_multi_requests         5867                       # Number of requests hitting in the snoop filter with multiple (>1) holders of the requested data.
system.tol2bus.snoop_filter.hit_multi_snoops            0                       # Number of snoops hitting in the snoop filter with multiple (>1) holders of the requested data.
system.tol2bus.snoop_filter.hit_single_requests      1507848                       # Number of requests hitting in the snoop filter with a single holder of the requested data.
system.tol2bus.snoop_filter.hit_single_snoops          125                       # Number of snoops hitting in the snoop filter with a single holder of the requested data.
system.tol2bus.snoop_filter.tot_requests      3016844                       # Total number of requests made to the snoop filter.
system.tol2bus.snoop_filter.tot_snoops            125                       # Total number of snoops made to the snoop filter.
system.clk_domain.clock                          1000                       # Clock period in ticks
system.cpu.branchPred.lookups                  606758                       # Number of BP lookups
system.cpu.branchPred.condPredicted            604652                       # Number of conditional branches predicted
system.cpu.branchPred.condIncorrect               849                       # Number of conditional branches incorrect
system.cpu.branchPred.BTBLookups               602551                       # Number of BTB lookups
system.cpu.branchPred.BTBHits                  601484                       # Number of BTB hits
system.cpu.branchPred.BTBHitPct             99.822920                       # BTB Hit Percentage
system.cpu.branchPred.RASUsed                     582                       # Number of times the RAS was used to get a target.
system.cpu.branchPred.RASIncorrect                  2                       # Number of incorrect RAS predictions.
system.cpu.branchPred.indirectLookups             374                       # Number of indirect predictor lookups.
system.cpu.branchPred.indirectHits                173                       # Number of indirect target hits.
system.cpu.branchPred.indirectMisses              201                       # Number of indirect misses.
system.cpu.branchPred.indirectMispredicted          102                       # Number of mispredicted indirect branches.
system.cpu.dcache.demand_hits::.cpu.data     45791112                       # number of demand (read+write) hits
system.cpu.dcache.demand_hits::total         45791112                       # number of demand (read+write) hits
system.cpu.dcache.overall_hits::.cpu.data     45791158                       # number of overall hits
system.cpu.dcache.overall_hits::total        45791158                       # number of overall hits
system.cpu.dcache.demand_misses::.cpu.data      3003844                       # number of demand (read+write) misses
system.cpu.dcache.demand_misses::total        3003844                       # number of demand (read+write) misses
system.cpu.dcache.overall_misses::.cpu.data      3003863                       # number of overall misses
system.cpu.dcache.overall_misses::total       3003863                       # number of overall misses
system.cpu.dcache.demand_miss_latency::.cpu.data 303209440000                       # number of demand (read+write) miss cycles
system.cpu.dcache.demand_miss_latency::total 303209440000                       # number of demand (read+write) miss cycles
system.cpu.dcache.overall_miss_latency::.cpu.data 303209440000                       # number of overall miss cycles
system.cpu.dcache.overall_miss_latency::total 303209440000                       # number of overall miss cycles
system.cpu.dcache.demand_accesses::.cpu.data     48794956                       # number of demand (read+write) accesses
system.cpu.dcache.demand_accesses::total     48794956                       # number of demand (read+write) accesses
system.cpu.dcache.overall_accesses::.cpu.data     48795021                       # number of overall (read+write) accesses
system.cpu.dcache.overall_accesses::total     48795021                       # number of overall (read+write) accesses
system.cpu.dcache.demand_miss_rate::.cpu.data     0.061561                       # miss rate for demand accesses
system.cpu.dcache.demand_miss_rate::total     0.061561                       # miss rate for demand accesses
system.cpu.dcache.overall_miss_rate::.cpu.data     0.061561                       # miss rate for overall accesses
system.cpu.dcache.overall_miss_rate::total     0.061561                       # miss rate for overall accesses
system.cpu.dcache.demand_avg_miss_latency::.cpu.data 100940.474938                       # average overall miss latency
system.cpu.dcache.demand_avg_miss_latency::total 100940.474938                       # average overall miss latency
system.cpu.dcache.overall_avg_miss_latency::.cpu.data 100939.836471                       # average overall miss latency
system.cpu.dcache.overall_avg_miss_latency::total 100939.836471                       # average overall miss latency
system.cpu.dcache.blocked_cycles::no_mshrs            3                       # number of cycles access was blocked
system.cpu.dcache.blocked_cycles::no_targets            0                       # number of cycles access was blocked
system.cpu.dcache.blocked::no_mshrs                 1                       # number of cycles access was blocked
system.cpu.dcache.blocked::no_targets               0                       # number of cycles access was blocked
system.cpu.dcache.avg_blocked_cycles::no_mshrs            3                       # average number of cycles each access was blocked
system.cpu.dcache.avg_blocked_cycles::no_targets          nan                       # average number of cycles each access was blocked
system.cpu.dcache.writebacks::.writebacks      1501015                       # number of writebacks
system.cpu.dcache.writebacks::total           1501015                       # number of writebacks
system.cpu.dcache.demand_mshr_hits::.cpu.data      1495896                       # number of demand (read+write) MSHR hits
system.cpu.dcache.demand_mshr_hits::total      1495896                       # number of demand (read+write) MSHR hits
system.cpu.dcache.overall_mshr_hits::.cpu.data      1495896                       # number of overall MSHR hits
system.cpu.dcache.overall_mshr_hits::total      1495896                       # number of overall MSHR hits
system.cpu.dcache.demand_mshr_misses::.cpu.data      1507948                       # number of demand (read+write) MSHR misses
system.cpu.dcache.demand_mshr_misses::total      1507948                       # number of demand (read+write) MSHR misses
system.cpu.dcache.overall_mshr_misses::.cpu.data      1507965                       # number of overall MSHR misses
system.cpu.dcache.overall_mshr_misses::total      1507965                       # number of overall MSHR misses
system.cpu.dcache.demand_mshr_miss_latency::.cpu.data 156814943000                       # number of demand (read+write) MSHR miss cycles
system.cpu.dcache.demand_mshr_miss_latency::total 156814943000                       # number of demand (read+write) MSHR miss cycles
system.cpu.dcache.overall_mshr_miss_latency::.cpu.data 156816747000                       # number of overall MSHR miss cycles
system.cpu.dcache.overall_mshr_miss_latency::total 156816747000                       # number of overall MSHR miss cycles
system.cpu.dcache.demand_mshr_miss_rate::.cpu.data     0.030904                       # mshr miss rate for demand accesses
system.cpu.dcache.demand_mshr_miss_rate::total     0.030904                       # mshr miss rate for demand accesses
system.cpu.dcache.overall_mshr_miss_rate::.cpu.data     0.030904                       # mshr miss rate for overall accesses
system.cpu.dcache.overall_mshr_miss_rate::total     0.030904                       # mshr miss rate for overall accesses
system.cpu.dcache.demand_avg_mshr_miss_latency::.cpu.data 103992.274933                       # average overall mshr miss latency
system.cpu.dcache.demand_avg_mshr_miss_latency::total 103992.274933                       # average overall mshr miss latency
system.cpu.dcache.overall_avg_mshr_miss_latency::.cpu.data 103992.298893                       # average overall mshr miss latency
system.cpu.dcache.overall_avg_mshr_miss_latency::total 103992.298893                       # average overall mshr miss latency
system.cpu.dcache.replacements                1506942                       # number of replacements
system.cpu.dcache.ReadReq_hits::.cpu.data     35690767                       # number of ReadReq hits
system.cpu.dcache.ReadReq_hits::total        35690767                       # number of ReadReq hits
system.cpu.dcache.ReadReq_misses::.cpu.data        11747                       # number of ReadReq misses
system.cpu.dcache.ReadReq_misses::total         11747                       # number of ReadReq misses
system.cpu.dcache.ReadReq_miss_latency::.cpu.data    540468000                       # number of ReadReq miss cycles
system.cpu.dcache.ReadReq_miss_latency::total    540468000                       # number of ReadReq miss cycles
system.cpu.dcache.ReadReq_accesses::.cpu.data     35702514                       # number of ReadReq accesses(hits+misses)
system.cpu.dcache.ReadReq_accesses::total     35702514                       # number of ReadReq accesses(hits+misses)
system.cpu.dcache.ReadReq_miss_rate::.cpu.data     0.000329                       # miss rate for ReadReq accesses
system.cpu.dcache.ReadReq_miss_rate::total     0.000329                       # miss rate for ReadReq accesses
system.cpu.dcache.ReadReq_avg_miss_latency::.cpu.data 46009.023580                       # average ReadReq miss latency
system.cpu.dcache.ReadReq_avg_miss_latency::total 46009.023580                       # average ReadReq miss latency
system.cpu.dcache.ReadReq_mshr_hits::.cpu.data            4                       # number of ReadReq MSHR hits
system.cpu.dcache.ReadReq_mshr_hits::total            4                       # number of ReadReq MSHR hits
system.cpu.dcache.ReadReq_mshr_misses::.cpu.data        11743                       # number of ReadReq MSHR misses
system.cpu.dcache.ReadReq_mshr_misses::total        11743                       # number of ReadReq MSHR misses
system.cpu.dcache.ReadReq_mshr_miss_latency::.cpu.data    516573000                       # number of ReadReq MSHR miss cycles
system.cpu.dcache.ReadReq_mshr_miss_latency::total    516573000                       # number of ReadReq MSHR miss cycles
system.cpu.dcache.ReadReq_mshr_miss_rate::.cpu.data     0.000329                       # mshr miss rate for ReadReq accesses
system.cpu.dcache.ReadReq_mshr_miss_rate::total     0.000329                       # mshr miss rate for ReadReq accesses
system.cpu.dcache.ReadReq_avg_mshr_miss_latency::.cpu.data 43989.866303                       # average ReadReq mshr miss latency
system.cpu.dcache.ReadReq_avg_mshr_miss_latency::total 43989.866303                       # average ReadReq mshr miss latency
system.cpu.dcache.WriteReq_hits::.cpu.data     10100345                       # number of WriteReq hits
system.cpu.dcache.WriteReq_hits::total       10100345                       # number of WriteReq hits
system.cpu.dcache.WriteReq_misses::.cpu.data      2992097                       # number of WriteReq misses
system.cpu.dcache.WriteReq_misses::total      2992097                       # number of WriteReq misses
system.cpu.dcache.WriteReq_miss_latency::.cpu.data 302668972000                       # number of WriteReq miss cycles
system.cpu.dcache.WriteReq_miss_latency::total 302668972000                       # number of WriteReq miss cycles
system.cpu.dcache.WriteReq_accesses::.cpu.data     13092442                       # number of WriteReq accesses(hits+misses)
system.cpu.dcache.WriteReq_accesses::total     13092442                       # number of WriteReq accesses(hits+misses)
system.cpu.dcache.WriteReq_miss_rate::.cpu.data     0.228536                       # miss rate for WriteReq accesses
system.cpu.dcache.WriteReq_miss_rate::total     0.228536                       # miss rate for WriteReq accesses
system.cpu.dcache.WriteReq_avg_miss_latency::.cpu.data 101156.136315                       # average WriteReq miss latency
system.cpu.dcache.WriteReq_avg_miss_latency::total 101156.136315                       # average WriteReq miss latency
system.cpu.dcache.WriteReq_mshr_hits::.cpu.data      1495892                       # number of WriteReq MSHR hits
system.cpu.dcache.WriteReq_mshr_hits::total      1495892                       # number of WriteReq MSHR hits
system.cpu.dcache.WriteReq_mshr_misses::.cpu.data      1496205                       # number of WriteReq MSHR misses
system.cpu.dcache.WriteReq_mshr_misses::total      1496205                       # number of WriteReq MSHR misses
system.cpu.dcache.WriteReq_mshr_miss_latency::.cpu.data 156298370000                       # number of WriteReq MSHR miss cycles
system.cpu.dcache.WriteReq_mshr_miss_latency::total 156298370000                       # number of WriteReq MSHR miss cycles
system.cpu.dcache.WriteReq_mshr_miss_rate::.cpu.data     0.114280                       # mshr miss rate for WriteReq accesses
system.cpu.dcache.WriteReq_mshr_miss_rate::total     0.114280                       # mshr miss rate for WriteReq accesses
system.cpu.dcache.WriteReq_avg_mshr_miss_latency::.cpu.data 104463.205243                       # average WriteReq mshr miss latency
system.cpu.dcache.WriteReq_avg_mshr_miss_latency::total 104463.205243                       # average WriteReq mshr miss latency
system.cpu.dcache.SoftPFReq_hits::.cpu.data           46                       # number of SoftPFReq hits
system.cpu.dcache.SoftPFReq_hits::total            46                       # number of SoftPFReq hits
system.cpu.dcache.SoftPFReq_misses::.cpu.data           19                       # number of SoftPFReq misses
system.cpu.dcache.SoftPFReq_misses::total           19                       # number of SoftPFReq misses
system.cpu.dcache.SoftPFReq_accesses::.cpu.data           65                       # number of SoftPFReq accesses(hits+misses)
system.cpu.dcache.SoftPFReq_accesses::total           65                       # number of SoftPFReq accesses(hits+misses)
system.cpu.dcache.SoftPFReq_miss_rate::.cpu.data     0.292308                       # miss rate for SoftPFReq accesses
system.cpu.dcache.SoftPFReq_miss_rate::total     0.292308                       # miss rate for SoftPFReq accesses
system.cpu.dcache.SoftPFReq_mshr_misses::.cpu.data           17                       # number of SoftPFReq MSHR misses
system.cpu.dcache.SoftPFReq_mshr_misses::total           17                       # number of SoftPFReq MSHR misses
system.cpu.dcache.SoftPFReq_mshr_miss_latency::.cpu.data      1804000                       # number of SoftPFReq MSHR miss cycles
system.cpu.dcache.SoftPFReq_mshr_miss_latency::total      1804000                       # number of SoftPFReq MSHR miss cycles
system.cpu.dcache.SoftPFReq_mshr_miss_rate::.cpu.data     0.261538                       # mshr miss rate for SoftPFReq accesses
system.cpu.dcache.SoftPFReq_mshr_miss_rate::total     0.261538                       # mshr miss rate for SoftPFReq accesses
system.cpu.dcache.SoftPFReq_avg_mshr_miss_latency::.cpu.data 106117.647059                       # average SoftPFReq mshr miss latency
system.cpu.dcache.SoftPFReq_avg_mshr_miss_latency::total 106117.647059                       # average SoftPFReq mshr miss latency
system.cpu.dcache.LoadLockedReq_hits::.cpu.data           13                       # number of LoadLockedReq hits
system.cpu.dcache.LoadLockedReq_hits::total           13                       # number of LoadLockedReq hits
system.cpu.dcache.LoadLockedReq_misses::.cpu.data            1                       # number of LoadLockedReq misses
system.cpu.dcache.LoadLockedReq_misses::total            1                       # number of LoadLockedReq misses
system.cpu.dcache.LoadLockedReq_miss_latency::.cpu.data        26000                       # number of LoadLockedReq miss cycles
system.cpu.dcache.LoadLockedReq_miss_latency::total        26000                       # number of LoadLockedReq miss cycles
system.cpu.dcache.LoadLockedReq_accesses::.cpu.data           14                       # number of LoadLockedReq accesses(hits+misses)
system.cpu.dcache.LoadLockedReq_accesses::total           14                       # number of LoadLockedReq accesses(hits+misses)
system.cpu.dcache.LoadLockedReq_miss_rate::.cpu.data     0.071429                       # miss rate for LoadLockedReq accesses
system.cpu.dcache.LoadLockedReq_miss_rate::total     0.071429                       # miss rate for LoadLockedReq accesses
system.cpu.dcache.LoadLockedReq_avg_miss_latency::.cpu.data        26000                       # average LoadLockedReq miss latency
system.cpu.dcache.LoadLockedReq_avg_miss_latency::total        26000                       # average LoadLockedReq miss latency
system.cpu.dcache.LoadLockedReq_mshr_misses::.cpu.data            1                       # number of LoadLockedReq MSHR misses
system.cpu.dcache.LoadLockedReq_mshr_misses::total            1                       # number of LoadLockedReq MSHR misses
system.cpu.dcache.LoadLockedReq_mshr_miss_latency::.cpu.data        24000                       # number of LoadLockedReq MSHR miss cycles
system.cpu.dcache.LoadLockedReq_mshr_miss_latency::total        24000                       # number of LoadLockedReq MSHR miss cycles
system.cpu.dcache.LoadLockedReq_mshr_miss_rate::.cpu.data     0.071429                       # mshr miss rate for LoadLockedReq accesses
system.cpu.dcache.LoadLockedReq_mshr_miss_rate::total     0.071429                       # mshr miss rate for LoadLockedReq accesses
system.cpu.dcache.LoadLockedReq_avg_mshr_miss_latency::.cpu.data        24000                       # average LoadLockedReq mshr miss latency
system.cpu.dcache.LoadLockedReq_avg_mshr_miss_latency::total        24000                       # average LoadLockedReq mshr miss latency
system.cpu.dcache.StoreCondReq_hits::.cpu.data           14                       # number of StoreCondReq hits
system.cpu.dcache.StoreCondReq_hits::total           14                       # number of StoreCondReq hits
system.cpu.dcache.StoreCondReq_accesses::.cpu.data           14                       # number of StoreCondReq accesses(hits+misses)
system.cpu.dcache.StoreCondReq_accesses::total           14                       # number of StoreCondReq accesses(hits+misses)
system.cpu.dcache.power_state.pwrStateResidencyTicks::UNDEFINED 264055067000                       # Cumulative time (in ticks) in various power states
system.cpu.dcache.tags.tagsinuse          1023.385318                       # Cycle average of tags in use
system.cpu.dcache.tags.total_refs            47299151                       # Total number of references to valid blocks.
system.cpu.dcache.tags.sampled_refs           1507966                       # Sample count of references to valid blocks.
system.cpu.dcache.tags.avg_refs             31.366192                       # Average number of references to valid blocks.
system.cpu.dcache.tags.warmup_cycle            223000                       # Cycle when the warmup percentage was hit.
system.cpu.dcache.tags.occ_blocks::.cpu.data  1023.385318                       # Average occupied blocks per requestor
system.cpu.dcache.tags.occ_percent::.cpu.data     0.999400                       # Average percentage of cache occupancy
system.cpu.dcache.tags.occ_percent::total     0.999400                       # Average percentage of cache occupancy
system.cpu.dcache.tags.occ_task_id_blocks::1024         1024                       # Occupied blocks per task id
system.cpu.dcache.tags.age_task_id_blocks_1024::0           57                       # Occupied blocks per task id
system.cpu.dcache.tags.age_task_id_blocks_1024::1          507                       # Occupied blocks per task id
system.cpu.dcache.tags.age_task_id_blocks_1024::2          460                       # Occupied blocks per task id
system.cpu.dcache.tags.occ_task_id_percent::1024            1                       # Percentage of cache occupancy per task id
system.cpu.dcache.tags.tag_accesses          50303015                       # Number of tag accesses
system.cpu.dcache.tags.data_accesses         50303015                       # Number of data accesses
system.cpu.dcache.tags.power_state.pwrStateResidencyTicks::UNDEFINED 264055067000                       # Cumulative time (in ticks) in various power states
system.cpu.dtb.instHits                             0                       # ITB inst hits
system.cpu.dtb.instMisses                           0                       # ITB inst misses
system.cpu.dtb.readHits                             0                       # DTB read hits
system.cpu.dtb.readMisses                           0                       # DTB read misses
system.cpu.dtb.writeHits                            0                       # DTB write hits
system.cpu.dtb.writeMisses                          0                       # DTB write misses
system.cpu.dtb.inserts                              0                       # Number of times an entry is inserted into the TLB
system.cpu.dtb.flushTlb                             0                       # Number of times complete TLB was flushed
system.cpu.dtb.flushTlbMva                          0                       # Number of times TLB was flushed by MVA
system.cpu.dtb.flushTlbMvaAsid                      0                       # Number of times TLB was flushed by MVA & ASID
system.cpu.dtb.flushTlbAsid                         0                       # Number of times TLB was flushed by ASID
system.cpu.dtb.flushedEntries                       0                       # Number of entries that have been flushed from TLB
system.cpu.dtb.alignFaults                          0                       # Number of TLB faults due to alignment restrictions
system.cpu.dtb.prefetchFaults                       0                       # Number of TLB faults due to prefetch
system.cpu.dtb.domainFaults                         0                       # Number of TLB faults due to domain restrictions
system.cpu.dtb.permsFaults                          0                       # Number of TLB faults due to permissions restrictions
system.cpu.dtb.readAccesses                         0                       # DTB read accesses
system.cpu.dtb.writeAccesses                        0                       # DTB write accesses
system.cpu.dtb.instAccesses                         0                       # ITB inst accesses
system.cpu.dtb.hits                                 0                       # Total TLB (inst and data) hits
system.cpu.dtb.misses                               0                       # Total TLB (inst and data) misses
system.cpu.dtb.accesses                             0                       # Total TLB (inst and data) accesses
system.cpu.dtb.stage2_mmu.stage2_tlb.instHits            0                       # ITB inst hits
system.cpu.dtb.stage2_mmu.stage2_tlb.instMisses            0                       # ITB inst misses
system.cpu.dtb.stage2_mmu.stage2_tlb.readHits            0                       # DTB read hits
system.cpu.dtb.stage2_mmu.stage2_tlb.readMisses            0                       # DTB read misses
system.cpu.dtb.stage2_mmu.stage2_tlb.writeHits            0                       # DTB write hits
system.cpu.dtb.stage2_mmu.stage2_tlb.writeMisses            0                       # DTB write misses
system.cpu.dtb.stage2_mmu.stage2_tlb.inserts            0                       # Number of times an entry is inserted into the TLB
system.cpu.dtb.stage2_mmu.stage2_tlb.flushTlb            0                       # Number of times complete TLB was flushed
system.cpu.dtb.stage2_mmu.stage2_tlb.flushTlbMva            0                       # Number of times TLB was flushed by MVA
system.cpu.dtb.stage2_mmu.stage2_tlb.flushTlbMvaAsid            0                       # Number of times TLB was flushed by MVA & ASID
system.cpu.dtb.stage2_mmu.stage2_tlb.flushTlbAsid            0                       # Number of times TLB was flushed by ASID
system.cpu.dtb.stage2_mmu.stage2_tlb.flushedEntries            0                       # Number of entries that have been flushed from TLB
system.cpu.dtb.stage2_mmu.stage2_tlb.alignFaults            0                       # Number of TLB faults due to alignment restrictions
system.cpu.dtb.stage2_mmu.stage2_tlb.prefetchFaults            0                       # Number of TLB faults due to prefetch
system.cpu.dtb.stage2_mmu.stage2_tlb.domainFaults            0                       # Number of TLB faults due to domain restrictions
system.cpu.dtb.stage2_mmu.stage2_tlb.permsFaults            0                       # Number of TLB faults due to permissions restrictions
system.cpu.dtb.stage2_mmu.stage2_tlb.readAccesses            0                       # DTB read accesses
system.cpu.dtb.stage2_mmu.stage2_tlb.writeAccesses            0                       # DTB write accesses
system.cpu.dtb.stage2_mmu.stage2_tlb.instAccesses            0                       # ITB inst accesses
system.cpu.dtb.stage2_mmu.stage2_tlb.hits            0                       # Total TLB (inst and data) hits
system.cpu.dtb.stage2_mmu.stage2_tlb.misses            0                       # Total TLB (inst and data) misses
system.cpu.dtb.stage2_mmu.stage2_tlb.accesses            0                       # Total TLB (inst and data) accesses
system.cpu.dtb.stage2_mmu.stage2_tlb.walker.walks            0                       # Table walker walks requested
system.cpu.dtb.stage2_mmu.stage2_tlb.walker.requestOrigin_Requested::Data            0                       # Table walker requests started/completed, data/inst
system.cpu.dtb.stage2_mmu.stage2_tlb.walker.requestOrigin_Requested::Inst            0                       # Table walker requests started/completed, data/inst
system.cpu.dtb.stage2_mmu.stage2_tlb.walker.requestOrigin_Requested::total            0                       # Table walker requests started/completed, data/inst
system.cpu.dtb.stage2_mmu.stage2_tlb.walker.requestOrigin_Completed::Data            0                       # Table walker requests started/completed, data/inst
system.cpu.dtb.stage2_mmu.stage2_tlb.walker.requestOrigin_Completed::Inst            0                       # Table walker requests started/completed, data/inst
system.cpu.dtb.stage2_mmu.stage2_tlb.walker.requestOrigin_Completed::total            0                       # Table walker requests started/completed, data/inst
system.cpu.dtb.stage2_mmu.stage2_tlb.walker.requestOrigin::total            0                       # Table walker requests started/completed, data/inst
system.cpu.dtb.stage2_mmu.stage2_tlb.walker.power_state.pwrStateResidencyTicks::UNDEFINED 264055067000                       # Cumulative time (in ticks) in various power states
system.cpu.dtb.walker.walks                         0                       # Table walker walks requested
system.cpu.dtb.walker.requestOrigin_Requested::Data            0                       # Table walker requests started/completed, data/inst
system.cpu.dtb.walker.requestOrigin_Requested::Inst            0                       # Table walker requests started/completed, data/inst
system.cpu.dtb.walker.requestOrigin_Requested::total            0                       # Table walker requests started/completed, data/inst
system.cpu.dtb.walker.requestOrigin_Completed::Data            0                       # Table walker requests started/completed, data/inst
system.cpu.dtb.walker.requestOrigin_Completed::Inst            0                       # Table walker requests started/completed, data/inst
system.cpu.dtb.walker.requestOrigin_Completed::total            0                       # Table walker requests started/completed, data/inst
system.cpu.dtb.walker.requestOrigin::total            0                       # Table walker requests started/completed, data/inst
system.cpu.dtb.walker.power_state.pwrStateResidencyTicks::UNDEFINED 264055067000                       # Cumulative time (in ticks) in various power states
system.cpu.fetch2.intInstructions            49669653                       # Number of integer instructions successfully decoded
system.cpu.fetch2.fpInstructions                    0                       # Number of floating point instructions successfully decoded
system.cpu.fetch2.vecInstructions                   0                       # Number of SIMD instructions successfully decoded
system.cpu.fetch2.loadInstructions           37091976                       # Number of memory load instructions successfully decoded
system.cpu.fetch2.storeInstructions          13161032                       # Number of memory store instructions successfully decoded
system.cpu.fetch2.amoInstructions                   0                       # Number of memory atomic instructions successfully decoded
system.cpu.icache.demand_hits::.cpu.inst      6045377                       # number of demand (read+write) hits
system.cpu.icache.demand_hits::total          6045377                       # number of demand (read+write) hits
system.cpu.icache.overall_hits::.cpu.inst      6045377                       # number of overall hits
system.cpu.icache.overall_hits::total         6045377                       # number of overall hits
system.cpu.icache.demand_misses::.cpu.inst         1031                       # number of demand (read+write) misses
system.cpu.icache.demand_misses::total           1031                       # number of demand (read+write) misses
system.cpu.icache.overall_misses::.cpu.inst         1031                       # number of overall misses
system.cpu.icache.overall_misses::total          1031                       # number of overall misses
system.cpu.icache.demand_miss_latency::.cpu.inst     64383000                       # number of demand (read+write) miss cycles
system.cpu.icache.demand_miss_latency::total     64383000                       # number of demand (read+write) miss cycles
system.cpu.icache.overall_miss_latency::.cpu.inst     64383000                       # number of overall miss cycles
system.cpu.icache.overall_miss_latency::total     64383000                       # number of overall miss cycles
system.cpu.icache.demand_accesses::.cpu.inst      6046408                       # number of demand (read+write) accesses
system.cpu.icache.demand_accesses::total      6046408                       # number of demand (read+write) accesses
system.cpu.icache.overall_accesses::.cpu.inst      6046408                       # number of overall (read+write) accesses
system.cpu.icache.overall_accesses::total      6046408                       # number of overall (read+write) accesses
system.cpu.icache.demand_miss_rate::.cpu.inst     0.000171                       # miss rate for demand accesses
system.cpu.icache.demand_miss_rate::total     0.000171                       # miss rate for demand accesses
system.cpu.icache.overall_miss_rate::.cpu.inst     0.000171                       # miss rate for overall accesses
system.cpu.icache.overall_miss_rate::total     0.000171                       # miss rate for overall accesses
system.cpu.icache.demand_avg_miss_latency::.cpu.inst 62447.138700                       # average overall miss latency
system.cpu.icache.demand_avg_miss_latency::total 62447.138700                       # average overall miss latency
system.cpu.icache.overall_avg_miss_latency::.cpu.inst 62447.138700                       # average overall miss latency
system.cpu.icache.overall_avg_miss_latency::total 62447.138700                       # average overall miss latency
system.cpu.icache.blocked_cycles::no_mshrs            0                       # number of cycles access was blocked
system.cpu.icache.blocked_cycles::no_targets            0                       # number of cycles access was blocked
system.cpu.icache.blocked::no_mshrs                 0                       # number of cycles access was blocked
system.cpu.icache.blocked::no_targets               0                       # number of cycles access was blocked
system.cpu.icache.avg_blocked_cycles::no_mshrs          nan                       # average number of cycles each access was blocked
system.cpu.icache.avg_blocked_cycles::no_targets          nan                       # average number of cycles each access was blocked
system.cpu.icache.writebacks::.writebacks          905                       # number of writebacks
system.cpu.icache.writebacks::total               905                       # number of writebacks
system.cpu.icache.demand_mshr_misses::.cpu.inst         1031                       # number of demand (read+write) MSHR misses
system.cpu.icache.demand_mshr_misses::total         1031                       # number of demand (read+write) MSHR misses
system.cpu.icache.overall_mshr_misses::.cpu.inst         1031                       # number of overall MSHR misses
system.cpu.icache.overall_mshr_misses::total         1031                       # number of overall MSHR misses
system.cpu.icache.demand_mshr_miss_latency::.cpu.inst     62321000                       # number of demand (read+write) MSHR miss cycles
system.cpu.icache.demand_mshr_miss_latency::total     62321000                       # number of demand (read+write) MSHR miss cycles
system.cpu.icache.overall_mshr_miss_latency::.cpu.inst     62321000                       # number of overall MSHR miss cycles
system.cpu.icache.overall_mshr_miss_latency::total     62321000                       # number of overall MSHR miss cycles
system.cpu.icache.demand_mshr_miss_rate::.cpu.inst     0.000171                       # mshr miss rate for demand accesses
system.cpu.icache.demand_mshr_miss_rate::total     0.000171                       # mshr miss rate for demand accesses
system.cpu.icache.overall_mshr_miss_rate::.cpu.inst     0.000171                       # mshr miss rate for overall accesses
system.cpu.icache.overall_mshr_miss_rate::total     0.000171                       # mshr miss rate for overall accesses
system.cpu.icache.demand_avg_mshr_miss_latency::.cpu.inst 60447.138700                       # average overall mshr miss latency
system.cpu.icache.demand_avg_mshr_miss_latency::total 60447.138700                       # average overall mshr miss latency
system.cpu.icache.overall_avg_mshr_miss_latency::.cpu.inst 60447.138700                       # average overall mshr miss latency
system.cpu.icache.overall_avg_mshr_miss_latency::total 60447.138700                       # average overall mshr miss latency
system.cpu.icache.replacements                    905                       # number of replacements
system.cpu.icache.ReadReq_hits::.cpu.inst      6045377                       # number of ReadReq hits
system.cpu.icache.ReadReq_hits::total         6045377                       # number of ReadReq hits
system.cpu.icache.ReadReq_misses::.cpu.inst         1031                       # number of ReadReq misses
system.cpu.icache.ReadReq_misses::total          1031                       # number of ReadReq misses
system.cpu.icache.ReadReq_miss_latency::.cpu.inst     64383000                       # number of ReadReq miss cycles
system.cpu.icache.ReadReq_miss_latency::total     64383000                       # number of ReadReq miss cycles
system.cpu.icache.ReadReq_accesses::.cpu.inst      6046408                       # number of ReadReq accesses(hits+misses)
system.cpu.icache.ReadReq_accesses::total      6046408                       # number of ReadReq accesses(hits+misses)
system.cpu.icache.ReadReq_miss_rate::.cpu.inst     0.000171                       # miss rate for ReadReq accesses
system.cpu.icache.ReadReq_miss_rate::total     0.000171                       # miss rate for ReadReq accesses
system.cpu.icache.ReadReq_avg_miss_latency::.cpu.inst 62447.138700                       # average ReadReq miss latency
system.cpu.icache.ReadReq_avg_miss_latency::total 62447.138700                       # average ReadReq miss latency
system.cpu.icache.ReadReq_mshr_misses::.cpu.inst         1031                       # number of ReadReq MSHR misses
system.cpu.icache.ReadReq_mshr_misses::total         1031                       # number of ReadReq MSHR misses
system.cpu.icache.ReadReq_mshr_miss_latency::.cpu.inst     62321000                       # number of ReadReq MSHR miss cycles
system.cpu.icache.ReadReq_mshr_miss_latency::total     62321000                       # number of ReadReq MSHR miss cycles
system.cpu.icache.ReadReq_mshr_miss_rate::.cpu.inst     0.000171                       # mshr miss rate for ReadReq accesses
system.cpu.icache.ReadReq_mshr_miss_rate::total     0.000171                       # mshr miss rate for ReadReq accesses
system.cpu.icache.ReadReq_avg_mshr_miss_latency::.cpu.inst 60447.138700                       # average ReadReq mshr miss latency
system.cpu.icache.ReadReq_avg_mshr_miss_latency::total 60447.138700                       # average ReadReq mshr miss latency
system.cpu.icache.power_state.pwrStateResidencyTicks::UNDEFINED 264055067000                       # Cumulative time (in ticks) in various power states
system.cpu.icache.tags.tagsinuse           125.989392                       # Cycle average of tags in use
system.cpu.icache.tags.total_refs             6046408                       # Total number of references to valid blocks.
system.cpu.icache.tags.sampled_refs              1031                       # Sample count of references to valid blocks.
system.cpu.icache.tags.avg_refs           5864.605238                       # Average number of references to valid blocks.
system.cpu.icache.tags.warmup_cycle            108000                       # Cycle when the warmup percentage was hit.
system.cpu.icache.tags.occ_blocks::.cpu.inst   125.989392                       # Average occupied blocks per requestor
system.cpu.icache.tags.occ_percent::.cpu.inst     0.984292                       # Average percentage of cache occupancy
system.cpu.icache.tags.occ_percent::total     0.984292                       # Average percentage of cache occupancy
system.cpu.icache.tags.occ_task_id_blocks::1024          126                       # Occupied blocks per task id
system.cpu.icache.tags.age_task_id_blocks_1024::4          126                       # Occupied blocks per task id
system.cpu.icache.tags.occ_task_id_percent::1024     0.984375                       # Percentage of cache occupancy per task id
system.cpu.icache.tags.tag_accesses           6047439                       # Number of tag accesses
system.cpu.icache.tags.data_accesses          6047439                       # Number of data accesses
system.cpu.icache.tags.power_state.pwrStateResidencyTicks::UNDEFINED 264055067000                       # Cumulative time (in ticks) in various power states
system.cpu.itb.instHits                             0                       # ITB inst hits
system.cpu.itb.instMisses                           0                       # ITB inst misses
system.cpu.itb.readHits                             0                       # DTB read hits
system.cpu.itb.readMisses                           0                       # DTB read misses
system.cpu.itb.writeHits                            0                       # DTB write hits
system.cpu.itb.writeMisses                          0                       # DTB write misses
system.cpu.itb.inserts                              0                       # Number of times an entry is inserted into the TLB
system.cpu.itb.flushTlb                             0                       # Number of times complete TLB was flushed
system.cpu.itb.flushTlbMva                          0                       # Number of times TLB was flushed by MVA
system.cpu.itb.flushTlbMvaAsid                      0                       # Number of times TLB was flushed by MVA & ASID
system.cpu.itb.flushTlbAsid                         0                       # Number of times TLB was flushed by ASID
system.cpu.itb.flushedEntries                       0                       # Number of entries that have been flushed from TLB
system.cpu.itb.alignFaults                          0                       # Number of TLB faults due to alignment restrictions
system.cpu.itb.prefetchFaults                       0                       # Number of TLB faults due to prefetch
system.cpu.itb.domainFaults                         0                       # Number of TLB faults due to domain restrictions
system.cpu.itb.permsFaults                          0                       # Number of TLB faults due to permissions restrictions
system.cpu.itb.readAccesses                         0                       # DTB read accesses
system.cpu.itb.writeAccesses                        0                       # DTB write accesses
system.cpu.itb.instAccesses                         0                       # ITB inst accesses
system.cpu.itb.hits                                 0                       # Total TLB (inst and data) hits
system.cpu.itb.misses                               0                       # Total TLB (inst and data) misses
system.cpu.itb.accesses                             0                       # Total TLB (inst and data) accesses
system.cpu.itb.stage2_mmu.stage2_tlb.instHits            0                       # ITB inst hits
system.cpu.itb.stage2_mmu.stage2_tlb.instMisses            0                       # ITB inst misses
system.cpu.itb.stage2_mmu.stage2_tlb.readHits            0                       # DTB read hits
system.cpu.itb.stage2_mmu.stage2_tlb.readMisses            0                       # DTB read misses
system.cpu.itb.stage2_mmu.stage2_tlb.writeHits            0                       # DTB write hits
system.cpu.itb.stage2_mmu.stage2_tlb.writeMisses            0                       # DTB write misses
system.cpu.itb.stage2_mmu.stage2_tlb.inserts            0                       # Number of times an entry is inserted into the TLB
system.cpu.itb.stage2_mmu.stage2_tlb.flushTlb            0                       # Number of times complete TLB was flushed
system.cpu.itb.stage2_mmu.stage2_tlb.flushTlbMva            0                       # Number of times TLB was flushed by MVA
system.cpu.itb.stage2_mmu.stage2_tlb.flushTlbMvaAsid            0                       # Number of times TLB was flushed by MVA & ASID
system.cpu.itb.stage2_mmu.stage2_tlb.flushTlbAsid            0                       # Number of times TLB was flushed by ASID
system.cpu.itb.stage2_mmu.stage2_tlb.flushedEntries            0                       # Number of entries that have been flushed from TLB
system.cpu.itb.stage2_mmu.stage2_tlb.alignFaults            0                       # Number of TLB faults due to alignment restrictions
system.cpu.itb.stage2_mmu.stage2_tlb.prefetchFaults            0                       # Number of TLB faults due to prefetch
system.cpu.itb.stage2_mmu.stage2_tlb.domainFaults            0                       # Number of TLB faults due to domain restrictions
system.cpu.itb.stage2_mmu.stage2_tlb.permsFaults            0                       # Number of TLB faults due to permissions restrictions
system.cpu.itb.stage2_mmu.stage2_tlb.readAccesses            0                       # DTB read accesses
system.cpu.itb.stage2_mmu.stage2_tlb.writeAccesses            0                       # DTB write accesses
system.cpu.itb.stage2_mmu.stage2_tlb.instAccesses            0                       # ITB inst accesses
system.cpu.itb.stage2_mmu.stage2_tlb.hits            0                       # Total TLB (inst and data) hits
system.cpu.itb.stage2_mmu.stage2_tlb.misses            0                       # Total TLB (inst and data) misses
system.cpu.itb.stage2_mmu.stage2_tlb.accesses            0                       # Total TLB (inst and data) accesses
system.cpu.itb.stage2_mmu.stage2_tlb.walker.walks            0                       # Table walker walks requested
system.cpu.itb.stage2_mmu.stage2_tlb.walker.requestOrigin_Requested::Data            0                       # Table walker requests started/completed, data/inst
system.cpu.itb.stage2_mmu.stage2_tlb.walker.requestOrigin_Requested::Inst            0                       # Table walker requests started/completed, data/inst
system.cpu.itb.stage2_mmu.stage2_tlb.walker.requestOrigin_Requested::total            0                       # Table walker requests started/completed, data/inst
system.cpu.itb.stage2_mmu.stage2_tlb.walker.requestOrigin_Completed::Data            0                       # Table walker requests started/completed, data/inst
system.cpu.itb.stage2_mmu.stage2_tlb.walker.requestOrigin_Completed::Inst            0                       # Table walker requests started/completed, data/inst
system.cpu.itb.stage2_mmu.stage2_tlb.walker.requestOrigin_Completed::total            0                       # Table walker requests started/completed, data/inst
system.cpu.itb.stage2_mmu.stage2_tlb.walker.requestOrigin::total            0                       # Table walker requests started/completed, data/inst
system.cpu.itb.stage2_mmu.stage2_tlb.walker.power_state.pwrStateResidencyTicks::UNDEFINED 264055067000                       # Cumulative time (in ticks) in various power states
system.cpu.itb.walker.walks                         0                       # Table walker walks requested
system.cpu.itb.walker.requestOrigin_Requested::Data            0                       # Table walker requests started/completed, data/inst
system.cpu.itb.walker.requestOrigin_Requested::Inst            0                       # Table walker requests started/completed, data/inst
system.cpu.itb.walker.requestOrigin_Requested::total            0                       # Table walker requests started/completed, data/inst
system.cpu.itb.walker.requestOrigin_Completed::Data            0                       # Table walker requests started/completed, data/inst
system.cpu.itb.walker.requestOrigin_Completed::Inst            0                       # Table walker requests started/completed, data/inst
system.cpu.itb.walker.requestOrigin_Completed::total            0                       # Table walker requests started/completed, data/inst
system.cpu.itb.walker.requestOrigin::total            0                       # Table walker requests started/completed, data/inst
system.cpu.itb.walker.power_state.pwrStateResidencyTicks::UNDEFINED 264055067000                       # Cumulative time (in ticks) in various power states
system.cpu.power_state.pwrStateResidencyTicks::ON 264055067000                       # Cumulative time (in ticks) in various power states
system.cpu.thread_0.numInsts                100000000                       # Number of Instructions committed
system.cpu.thread_0.numOps                  100003793                       # Number of Ops committed
system.cpu.thread_0.numMemRefs                      0                       # Number of Memory References
system.cpu_clk_domain.clock                      1000                       # Clock period in ticks
system.cpu_voltage_domain.voltage                   1                       # Voltage in Volts
system.l2.demand_hits::.cpu.inst                  538                       # number of demand (read+write) hits
system.l2.demand_hits::.cpu.data                20357                       # number of demand (read+write) hits
system.l2.demand_hits::total                    20895                       # number of demand (read+write) hits
system.l2.overall_hits::.cpu.inst                 538                       # number of overall hits
system.l2.overall_hits::.cpu.data               20357                       # number of overall hits
system.l2.overall_hits::total                   20895                       # number of overall hits
system.l2.demand_misses::.cpu.inst                493                       # number of demand (read+write) misses
system.l2.demand_misses::.cpu.data            1487609                       # number of demand (read+write) misses
system.l2.demand_misses::total                1488102                       # number of demand (read+write) misses
system.l2.overall_misses::.cpu.inst               493                       # number of overall misses
system.l2.overall_misses::.cpu.data           1487609                       # number of overall misses
system.l2.overall_misses::total               1488102                       # number of overall misses
system.l2.demand_miss_latency::.cpu.inst     47848000                       # number of demand (read+write) miss cycles
system.l2.demand_miss_latency::.cpu.data 151351222000                       # number of demand (read+write) miss cycles
system.l2.demand_miss_latency::total     151399070000                       # number of demand (read+write) miss cycles
system.l2.overall_miss_latency::.cpu.inst     47848000                       # number of overall miss cycles
system.l2.overall_miss_latency::.cpu.data 151351222000                       # number of overall miss cycles
system.l2.overall_miss_latency::total    151399070000                       # number of overall miss cycles
system.l2.demand_accesses::.cpu.inst             1031                       # number of demand (read+write) accesses
system.l2.demand_accesses::.cpu.data          1507966                       # number of demand (read+write) accesses
system.l2.demand_accesses::total              1508997                       # number of demand (read+write) accesses
system.l2.overall_accesses::.cpu.inst            1031                       # number of overall (read+write) accesses
system.l2.overall_accesses::.cpu.data         1507966                       # number of overall (read+write) accesses
system.l2.overall_accesses::total             1508997                       # number of overall (read+write) accesses
system.l2.demand_miss_rate::.cpu.inst        0.478177                       # miss rate for demand accesses
system.l2.demand_miss_rate::.cpu.data        0.986500                       # miss rate for demand accesses
system.l2.demand_miss_rate::total            0.986153                       # miss rate for demand accesses
system.l2.overall_miss_rate::.cpu.inst       0.478177                       # miss rate for overall accesses
system.l2.overall_miss_rate::.cpu.data       0.986500                       # miss rate for overall accesses
system.l2.overall_miss_rate::total           0.986153                       # miss rate for overall accesses
system.l2.demand_avg_miss_latency::.cpu.inst 97054.766734                       # average overall miss latency
system.l2.demand_avg_miss_latency::.cpu.data 101741.265346                       # average overall miss latency
system.l2.demand_avg_miss_latency::total 101739.712735                       # average overall miss latency
system.l2.overall_avg_miss_latency::.cpu.inst 97054.766734                       # average overall miss latency
system.l2.overall_avg_miss_latency::.cpu.data 101741.265346                       # average overall miss latency
system.l2.overall_avg_miss_latency::total 101739.712735                       # average overall miss latency
system.l2.blocked_cycles::no_mshrs                  0                       # number of cycles access was blocked
system.l2.blocked_cycles::no_targets                0                       # number of cycles access was blocked
system.l2.blocked::no_mshrs                         0                       # number of cycles access was blocked
system.l2.blocked::no_targets                       0                       # number of cycles access was blocked
system.l2.avg_blocked_cycles::no_mshrs            nan                       # average number of cycles each access was blocked
system.l2.avg_blocked_cycles::no_targets          nan                       # average number of cycles each access was blocked
system.l2.writebacks::.writebacks             1479319                       # number of writebacks
system.l2.writebacks::total                   1479319                       # number of writebacks
system.l2.demand_mshr_hits::.cpu.inst               1                       # number of demand (read+write) MSHR hits
system.l2.demand_mshr_hits::.cpu.data               3                       # number of demand (read+write) MSHR hits
system.l2.demand_mshr_hits::total                   4                       # number of demand (read+write) MSHR hits
system.l2.overall_mshr_hits::.cpu.inst              1                       # number of overall MSHR hits
system.l2.overall_mshr_hits::.cpu.data              3                       # number of overall MSHR hits
system.l2.overall_mshr_hits::total                  4                       # number of overall MSHR hits
system.l2.demand_mshr_misses::.cpu.inst           492                       # number of demand (read+write) MSHR misses
system.l2.demand_mshr_misses::.cpu.data       1487606                       # number of demand (read+write) MSHR misses
system.l2.demand_mshr_misses::total           1488098                       # number of demand (read+write) MSHR misses
system.l2.overall_mshr_misses::.cpu.inst          492                       # number of overall MSHR misses
system.l2.overall_mshr_misses::.cpu.data      1487606                       # number of overall MSHR misses
system.l2.overall_mshr_misses::total          1488098                       # number of overall MSHR misses
system.l2.demand_mshr_miss_latency::.cpu.inst     37923000                       # number of demand (read+write) MSHR miss cycles
system.l2.demand_mshr_miss_latency::.cpu.data 121598846000                       # number of demand (read+write) MSHR miss cycles
system.l2.demand_mshr_miss_latency::total 121636769000                       # number of demand (read+write) MSHR miss cycles
system.l2.overall_mshr_miss_latency::.cpu.inst     37923000                       # number of overall MSHR miss cycles
system.l2.overall_mshr_miss_latency::.cpu.data 121598846000                       # number of overall MSHR miss cycles
system.l2.overall_mshr_miss_latency::total 121636769000                       # number of overall MSHR miss cycles
system.l2.demand_mshr_miss_rate::.cpu.inst     0.477207                       # mshr miss rate for demand accesses
system.l2.demand_mshr_miss_rate::.cpu.data     0.986498                       # mshr miss rate for demand accesses
system.l2.demand_mshr_miss_rate::total       0.986150                       # mshr miss rate for demand accesses
system.l2.overall_mshr_miss_rate::.cpu.inst     0.477207                       # mshr miss rate for overall accesses
system.l2.overall_mshr_miss_rate::.cpu.data     0.986498                       # mshr miss rate for overall accesses
system.l2.overall_mshr_miss_rate::total      0.986150                       # mshr miss rate for overall accesses
system.l2.demand_avg_mshr_miss_latency::.cpu.inst 77079.268293                       # average overall mshr miss latency
system.l2.demand_avg_mshr_miss_latency::.cpu.data 81741.298435                       # average overall mshr miss latency
system.l2.demand_avg_mshr_miss_latency::total 81739.757059                       # average overall mshr miss latency
system.l2.overall_avg_mshr_miss_latency::.cpu.inst 77079.268293                       # average overall mshr miss latency
system.l2.overall_avg_mshr_miss_latency::.cpu.data 81741.298435                       # average overall mshr miss latency
system.l2.overall_avg_mshr_miss_latency::total 81739.757059                       # average overall mshr miss latency
system.l2.replacements                        1479906                       # number of replacements
system.l2.WritebackDirty_hits::.writebacks      1501015                       # number of WritebackDirty hits
system.l2.WritebackDirty_hits::total          1501015                       # number of WritebackDirty hits
system.l2.WritebackDirty_accesses::.writebacks      1501015                       # number of WritebackDirty accesses(hits+misses)
system.l2.WritebackDirty_accesses::total      1501015                       # number of WritebackDirty accesses(hits+misses)
system.l2.WritebackClean_hits::.writebacks          856                       # number of WritebackClean hits
system.l2.WritebackClean_hits::total              856                       # number of WritebackClean hits
system.l2.WritebackClean_accesses::.writebacks          856                       # number of WritebackClean accesses(hits+misses)
system.l2.WritebackClean_accesses::total          856                       # number of WritebackClean accesses(hits+misses)
system.l2.ReadExReq_hits::.cpu.data              8715                       # number of ReadExReq hits
system.l2.ReadExReq_hits::total                  8715                       # number of ReadExReq hits
system.l2.ReadExReq_misses::.cpu.data         1487490                       # number of ReadExReq misses
system.l2.ReadExReq_misses::total             1487490                       # number of ReadExReq misses
system.l2.ReadExReq_miss_latency::.cpu.data 151339137000                       # number of ReadExReq miss cycles
system.l2.ReadExReq_miss_latency::total  151339137000                       # number of ReadExReq miss cycles
system.l2.ReadExReq_accesses::.cpu.data       1496205                       # number of ReadExReq accesses(hits+misses)
system.l2.ReadExReq_accesses::total           1496205                       # number of ReadExReq accesses(hits+misses)
system.l2.ReadExReq_miss_rate::.cpu.data     0.994175                       # miss rate for ReadExReq accesses
system.l2.ReadExReq_miss_rate::total         0.994175                       # miss rate for ReadExReq accesses
system.l2.ReadExReq_avg_miss_latency::.cpu.data 101741.280278                       # average ReadExReq miss latency
system.l2.ReadExReq_avg_miss_latency::total 101741.280278                       # average ReadExReq miss latency
system.l2.ReadExReq_mshr_misses::.cpu.data      1487490                       # number of ReadExReq MSHR misses
system.l2.ReadExReq_mshr_misses::total        1487490                       # number of ReadExReq MSHR misses
system.l2.ReadExReq_mshr_miss_latency::.cpu.data 121589337000                       # number of ReadExReq MSHR miss cycles
system.l2.ReadExReq_mshr_miss_latency::total 121589337000                       # number of ReadExReq MSHR miss cycles
system.l2.ReadExReq_mshr_miss_rate::.cpu.data     0.994175                       # mshr miss rate for ReadExReq accesses
system.l2.ReadExReq_mshr_miss_rate::total     0.994175                       # mshr miss rate for ReadExReq accesses
system.l2.ReadExReq_avg_mshr_miss_latency::.cpu.data 81741.280278                       # average ReadExReq mshr miss latency
system.l2.ReadExReq_avg_mshr_miss_latency::total 81741.280278                       # average ReadExReq mshr miss latency
system.l2.ReadCleanReq_hits::.cpu.inst            538                       # number of ReadCleanReq hits
system.l2.ReadCleanReq_hits::total                538                       # number of ReadCleanReq hits
system.l2.ReadCleanReq_misses::.cpu.inst          493                       # number of ReadCleanReq misses
system.l2.ReadCleanReq_misses::total              493                       # number of ReadCleanReq misses
system.l2.ReadCleanReq_miss_latency::.cpu.inst     47848000                       # number of ReadCleanReq miss cycles
system.l2.ReadCleanReq_miss_latency::total     47848000                       # number of ReadCleanReq miss cycles
system.l2.ReadCleanReq_accesses::.cpu.inst         1031                       # number of ReadCleanReq accesses(hits+misses)
system.l2.ReadCleanReq_accesses::total           1031                       # number of ReadCleanReq accesses(hits+misses)
system.l2.ReadCleanReq_miss_rate::.cpu.inst     0.478177                       # miss rate for ReadCleanReq accesses
system.l2.ReadCleanReq_miss_rate::total      0.478177                       # miss rate for ReadCleanReq accesses
system.l2.ReadCleanReq_avg_miss_latency::.cpu.inst 97054.766734                       # average ReadCleanReq miss latency
system.l2.ReadCleanReq_avg_miss_latency::total 97054.766734                       # average ReadCleanReq miss latency
system.l2.ReadCleanReq_mshr_hits::.cpu.inst            1                       # number of ReadCleanReq MSHR hits
system.l2.ReadCleanReq_mshr_hits::total             1                       # number of ReadCleanReq MSHR hits
system.l2.ReadCleanReq_mshr_misses::.cpu.inst          492                       # number of ReadCleanReq MSHR misses
system.l2.ReadCleanReq_mshr_misses::total          492                       # number of ReadCleanReq MSHR misses
system.l2.ReadCleanReq_mshr_miss_latency::.cpu.inst     37923000                       # number of ReadCleanReq MSHR miss cycles
system.l2.ReadCleanReq_mshr_miss_latency::total     37923000                       # number of ReadCleanReq MSHR miss cycles
system.l2.ReadCleanReq_mshr_miss_rate::.cpu.inst     0.477207                       # mshr miss rate for ReadCleanReq accesses
system.l2.ReadCleanReq_mshr_miss_rate::total     0.477207                       # mshr miss rate for ReadCleanReq accesses
system.l2.ReadCleanReq_avg_mshr_miss_latency::.cpu.inst 77079.268293                       # average ReadCleanReq mshr miss latency
system.l2.ReadCleanReq_avg_mshr_miss_latency::total 77079.268293                       # average ReadCleanReq mshr miss latency
system.l2.ReadSharedReq_hits::.cpu.data         11642                       # number of ReadSharedReq hits
system.l2.ReadSharedReq_hits::total             11642                       # number of ReadSharedReq hits
system.l2.ReadSharedReq_misses::.cpu.data          119                       # number of ReadSharedReq misses
system.l2.ReadSharedReq_misses::total             119                       # number of ReadSharedReq misses
system.l2.ReadSharedReq_miss_latency::.cpu.data     12085000                       # number of ReadSharedReq miss cycles
system.l2.ReadSharedReq_miss_latency::total     12085000                       # number of ReadSharedReq miss cycles
system.l2.ReadSharedReq_accesses::.cpu.data        11761                       # number of ReadSharedReq accesses(hits+misses)
system.l2.ReadSharedReq_accesses::total         11761                       # number of ReadSharedReq accesses(hits+misses)
system.l2.ReadSharedReq_miss_rate::.cpu.data     0.010118                       # miss rate for ReadSharedReq accesses
system.l2.ReadSharedReq_miss_rate::total     0.010118                       # miss rate for ReadSharedReq accesses
system.l2.ReadSharedReq_avg_miss_latency::.cpu.data 101554.621849                       # average ReadSharedReq miss latency
system.l2.ReadSharedReq_avg_miss_latency::total 101554.621849                       # average ReadSharedReq miss latency
system.l2.ReadSharedReq_mshr_hits::.cpu.data            3                       # number of ReadSharedReq MSHR hits
system.l2.ReadSharedReq_mshr_hits::total            3                       # number of ReadSharedReq MSHR hits
system.l2.ReadSharedReq_mshr_misses::.cpu.data          116                       # number of ReadSharedReq MSHR misses
system.l2.ReadSharedReq_mshr_misses::total          116                       # number of ReadSharedReq MSHR misses
system.l2.ReadSharedReq_mshr_miss_latency::.cpu.data      9509000                       # number of ReadSharedReq MSHR miss cycles
system.l2.ReadSharedReq_mshr_miss_latency::total      9509000                       # number of ReadSharedReq MSHR miss cycles
system.l2.ReadSharedReq_mshr_miss_rate::.cpu.data     0.009863                       # mshr miss rate for ReadSharedReq accesses
system.l2.ReadSharedReq_mshr_miss_rate::total     0.009863                       # mshr miss rate for ReadSharedReq accesses
system.l2.ReadSharedReq_avg_mshr_miss_latency::.cpu.data 81974.137931                       # average ReadSharedReq mshr miss latency
system.l2.ReadSharedReq_avg_mshr_miss_latency::total 81974.137931                       # average ReadSharedReq mshr miss latency
system.l2.power_state.pwrStateResidencyTicks::UNDEFINED 264055067000                       # Cumulative time (in ticks) in various power states
system.l2.tags.tagsinuse                  8170.272365                       # Cycle average of tags in use
system.l2.tags.total_refs                     3010973                       # Total number of references to valid blocks.
system.l2.tags.sampled_refs                   1488098                       # Sample count of references to valid blocks.
system.l2.tags.avg_refs                      2.023370                       # Average number of references to valid blocks.
system.l2.tags.warmup_cycle                     87000                       # Cycle when the warmup percentage was hit.
system.l2.tags.occ_blocks::.cpu.inst         3.061685                       # Average occupied blocks per requestor
system.l2.tags.occ_blocks::.cpu.data      8167.210680                       # Average occupied blocks per requestor
system.l2.tags.occ_percent::.cpu.inst        0.000374                       # Average percentage of cache occupancy
system.l2.tags.occ_percent::.cpu.data        0.996974                       # Average percentage of cache occupancy
system.l2.tags.occ_percent::total            0.997348                       # Average percentage of cache occupancy
system.l2.tags.occ_task_id_blocks::1024          8192                       # Occupied blocks per task id
system.l2.tags.age_task_id_blocks_1024::0           57                       # Occupied blocks per task id
system.l2.tags.age_task_id_blocks_1024::1          507                       # Occupied blocks per task id
system.l2.tags.age_task_id_blocks_1024::2         5076                       # Occupied blocks per task id
system.l2.tags.age_task_id_blocks_1024::3         2550                       # Occupied blocks per task id
system.l2.tags.age_task_id_blocks_1024::4            2                       # Occupied blocks per task id
system.l2.tags.occ_task_id_percent::1024            1                       # Percentage of cache occupancy per task id
system.l2.tags.tag_accesses                   7510052                       # Number of tag accesses
system.l2.tags.data_accesses                  7510052                       # Number of data accesses
system.l2.tags.power_state.pwrStateResidencyTicks::UNDEFINED 264055067000                       # Cumulative time (in ticks) in various power states
system.mem_ctrls.avgPriority_.writebacks::samples   1479319.00                       # Average QoS priority value for accepted requests
system.mem_ctrls.avgPriority_.cpu.inst::samples       492.00                       # Average QoS priority value for accepted requests
system.mem_ctrls.avgPriority_.cpu.data::samples   1487606.00                       # Average QoS priority value for accepted requests
system.mem_ctrls.priorityMinLatency      0.000000018750                       # per QoS priority minimum request to response latency (s)
system.mem_ctrls.priorityMaxLatency      0.001387965250                       # per QoS priority maximum request to response latency (s)
system.mem_ctrls.numReadWriteTurnArounds        82336                       # Number of turnarounds from READ to WRITE
system.mem_ctrls.numWriteReadTurnArounds        82336                       # Number of turnarounds from WRITE to READ
system.mem_ctrls.numStayReadState             4456605                       # Number of times bus staying in READ state
system.mem_ctrls.numStayWriteState            1402703                       # Number of times bus staying in WRITE state
system.mem_ctrls.readReqs                     1488098                       # Number of read requests accepted
system.mem_ctrls.writeReqs                    1479319                       # Number of write requests accepted
system.mem_ctrls.readBursts                   1488098                       # Number of controller read bursts, including those serviced by the write queue
system.mem_ctrls.writeBursts                  1479319                       # Number of controller write bursts, including those merged in the write queue
system.mem_ctrls.servicedByWrQ                      0                       # Number of controller read bursts serviced by the write queue
system.mem_ctrls.mergedWrBursts                     0                       # Number of controller write bursts merged with an existing one
system.mem_ctrls.neitherReadNorWriteReqs            0                       # Number of requests that are neither read nor write
system.mem_ctrls.avgRdQLen                       1.00                       # Average read queue length when enqueuing
system.mem_ctrls.avgWrQLen                      24.73                       # Average write queue length when enqueuing
system.mem_ctrls.numRdRetry                         0                       # Number of times read queue was full causing retry
system.mem_ctrls.numWrRetry                         0                       # Number of times write queue was full causing retry
system.mem_ctrls.readPktSize::0                     0                       # Read request sizes (log2)
system.mem_ctrls.readPktSize::1                     0                       # Read request sizes (log2)
system.mem_ctrls.readPktSize::2                     0                       # Read request sizes (log2)
system.mem_ctrls.readPktSize::3                     0                       # Read request sizes (log2)
system.mem_ctrls.readPktSize::4                     0                       # Read request sizes (log2)
system.mem_ctrls.readPktSize::5                     0                       # Read request sizes (log2)
system.mem_ctrls.readPktSize::6               1488098                       # Read request sizes (log2)
system.mem_ctrls.writePktSize::0                    0                       # Write request sizes (log2)
[...]
system.mem_ctrls.dram.bw_write::.writebacks    358547999                       # Write bandwidth from this memory (bytes/s)
system.mem_ctrls.dram.bw_write::total       358547999                       # Write bandwidth from this memory (bytes/s)
system.mem_ctrls.dram.bw_total::.writebacks    358547999                       # Total bandwidth to/from this memory (bytes/s)
system.mem_ctrls.dram.bw_total::.cpu.inst       119248                       # Total bandwidth to/from this memory (bytes/s)
system.mem_ctrls.dram.bw_total::.cpu.data    360556550                       # Total bandwidth to/from this memory (bytes/s)
system.mem_ctrls.dram.bw_total::total       719223797                       # Total bandwidth to/from this memory (bytes/s)
system.mem_ctrls.dram.readBursts              1488098                       # Number of DRAM read bursts
system.mem_ctrls.dram.writeBursts             1479291                       # Number of DRAM write bursts
system.mem_ctrls.dram.perBankRdBursts::0        93065                       # Per bank write bursts
system.mem_ctrls.dram.perBankRdBursts::1        92961                       # Per bank write bursts
system.mem_ctrls.dram.perBankRdBursts::2        92992                       # Per bank write bursts
system.mem_ctrls.dram.perBankRdBursts::3        92938                       # Per bank write bursts
system.mem_ctrls.dram.perBankRdBursts::4        93037                       # Per bank write bursts
system.mem_ctrls.dram.perBankRdBursts::5        93074                       # Per bank write bursts
system.mem_ctrls.dram.perBankRdBursts::6        93061                       # Per bank write bursts
system.mem_ctrls.dram.perBankRdBursts::7        93078                       # Per bank write bursts
system.mem_ctrls.dram.perBankRdBursts::8        93147                       # Per bank write bursts
system.mem_ctrls.dram.perBankRdBursts::9        92944                       # Per bank write bursts
system.mem_ctrls.dram.perBankRdBursts::10        92955                       # Per bank write bursts
system.mem_ctrls.dram.perBankRdBursts::11        92953                       # Per bank write bursts
system.mem_ctrls.dram.perBankRdBursts::12        92999                       # Per bank write bursts
system.mem_ctrls.dram.perBankRdBursts::13        92952                       # Per bank write bursts
system.mem_ctrls.dram.perBankRdBursts::14        92956                       # Per bank write bursts
system.mem_ctrls.dram.perBankRdBursts::15        92986                       # Per bank write bursts
system.mem_ctrls.dram.perBankWrBursts::0        92461                       # Per bank write bursts
system.mem_ctrls.dram.perBankWrBursts::1        92440                       # Per bank write bursts
system.mem_ctrls.dram.perBankWrBursts::2        92431                       # Per bank write bursts
system.mem_ctrls.dram.perBankWrBursts::3        92423                       # Per bank write bursts
system.mem_ctrls.dram.perBankWrBursts::4        92481                       # Per bank write bursts
system.mem_ctrls.dram.perBankWrBursts::5        92544                       # Per bank write bursts
system.mem_ctrls.dram.perBankWrBursts::6        92544                       # Per bank write bursts
system.mem_ctrls.dram.perBankWrBursts::7        92544                       # Per bank write bursts
system.mem_ctrls.dram.perBankWrBursts::8        92508                       # Per bank write bursts
system.mem_ctrls.dram.perBankWrBursts::9        92416                       # Per bank write bursts
system.mem_ctrls.dram.perBankWrBursts::10        92416                       # Per bank write bursts
system.mem_ctrls.dram.perBankWrBursts::11        92416                       # Per bank write bursts
system.mem_ctrls.dram.perBankWrBursts::12        92416                       # Per bank write bursts
system.mem_ctrls.dram.perBankWrBursts::13        92416                       # Per bank write bursts
system.mem_ctrls.dram.perBankWrBursts::14        92416                       # Per bank write bursts
system.mem_ctrls.dram.perBankWrBursts::15        92419                       # Per bank write bursts
system.mem_ctrls.dram.totQLat             17449938750                       # Total ticks spent queuing
system.mem_ctrls.dram.totBusLat            7440490000                       # Total ticks spent in databus transfers
system.mem_ctrls.dram.totMemAccLat        45351776250                       # Total ticks spent from burst creation until serviced by the DRAM
system.mem_ctrls.dram.avgQLat                11726.34                       # Average queueing delay per DRAM burst
system.mem_ctrls.dram.avgBusLat               5000.00                       # Average bus latency per DRAM burst
system.mem_ctrls.dram.avgMemAccLat           30476.34                       # Average memory access latency per DRAM burst
system.mem_ctrls.dram.readRowHits             1315126                       # Number of row buffer hits during reads
system.mem_ctrls.dram.writeRowHits            1313171                       # Number of row buffer hits during writes
system.mem_ctrls.dram.readRowHitRate            88.38                       # Row buffer hit rate for reads
system.mem_ctrls.dram.writeRowHitRate           88.77                       # Row buffer hit rate for writes
system.mem_ctrls.dram.bytesPerActivate::samples       339091                       # Bytes accessed per row activation
system.mem_ctrls.dram.bytesPerActivate::mean   560.062237                       # Bytes accessed per row activation
system.mem_ctrls.dram.bytesPerActivate::gmean   371.965737                       # Bytes accessed per row activation
system.mem_ctrls.dram.bytesPerActivate::stdev   410.406160                       # Bytes accessed per row activation
system.mem_ctrls.dram.bytesPerActivate::0-127        15634      4.61%      4.61% # Bytes accessed per row activation
system.mem_ctrls.dram.bytesPerActivate::128-255       123873     36.53%     41.14% # Bytes accessed per row activation
system.mem_ctrls.dram.bytesPerActivate::256-383        13169      3.88%     45.03% # Bytes accessed per row activation
system.mem_ctrls.dram.bytesPerActivate::384-511        12642      3.73%     48.75% # Bytes accessed per row activation
system.mem_ctrls.dram.bytesPerActivate::512-639        14351      4.23%     52.99% # Bytes accessed per row activation
system.mem_ctrls.dram.bytesPerActivate::640-767        11374      3.35%     56.34% # Bytes accessed per row activation
system.mem_ctrls.dram.bytesPerActivate::768-895        11469      3.38%     59.72% # Bytes accessed per row activation
system.mem_ctrls.dram.bytesPerActivate::896-1023        12050      3.55%     63.28% # Bytes accessed per row activation
system.mem_ctrls.dram.bytesPerActivate::1024-1151       124529     36.72%    100.00% # Bytes accessed per row activation
system.mem_ctrls.dram.bytesPerActivate::total       339091                       # Bytes accessed per row activation
system.mem_ctrls.dram.bytesRead              95238272                       # Total number of bytes read from DRAM
system.mem_ctrls.dram.bytesWritten           94674624                       # Total number of bytes written to DRAM
system.mem_ctrls.dram.avgRdBW              360.675798                       # Average DRAM read bandwidth in MiBytes/s
system.mem_ctrls.dram.avgWrBW              358.541213                       # Average DRAM write bandwidth in MiBytes/s
system.mem_ctrls.dram.peakBW                 12800.00                       # Theoretical peak bandwidth in MiByte/s
system.mem_ctrls.dram.busUtil                    5.62                       # Data bus utilization in percentage
system.mem_ctrls.dram.busUtilRead                2.82                       # Data bus utilization in percentage for reads
system.mem_ctrls.dram.busUtilWrite               2.80                       # Data bus utilization in percentage for writes
system.mem_ctrls.dram.pageHitRate               88.57                       # Row buffer hit rate, read and write combined
system.mem_ctrls.dram.power_state.pwrStateResidencyTicks::UNDEFINED 264055067000                       # Cumulative time (in ticks) in various power states
system.mem_ctrls.dram.rank0.actEnergy      1212414840                       # Energy for activate commands per rank (pJ)
system.mem_ctrls.dram.rank0.preEnergy       644413770                       # Energy for precharge commands per rank (pJ)
system.mem_ctrls.dram.rank0.readEnergy     5313630840                       # Energy for read commands per rank (pJ)
system.mem_ctrls.dram.rank0.writeEnergy    3862110960                       # Energy for write commands per rank (pJ)
system.mem_ctrls.dram.rank0.refreshEnergy 20843671680.000004                       # Energy for refresh commands per rank (pJ)
system.mem_ctrls.dram.rank0.actBackEnergy  61590511530                       # Energy for active background per rank (pJ)
system.mem_ctrls.dram.rank0.preBackEnergy  49531452000                       # Energy for precharge background per rank (pJ)
system.mem_ctrls.dram.rank0.actPowerDownEnergy            0                       # Energy for active power-down per rank (pJ)
system.mem_ctrls.dram.rank0.prePowerDownEnergy            0                       # Energy for precharge power-down per rank (pJ)
system.mem_ctrls.dram.rank0.selfRefreshEnergy            0                       # Energy for self refresh per rank (pJ)
system.mem_ctrls.dram.rank0.totalEnergy  142998205620                       # Total energy per rank (pJ)
system.mem_ctrls.dram.rank0.averagePower   541.546910                       # Core power per rank (mW)
system.mem_ctrls.dram.rank0.totalIdleTime            0                       # Total Idle time Per DRAM Rank
system.mem_ctrls.dram.rank0.pwrStateTime::IDLE 126808156500                       # Time in different power states
system.mem_ctrls.dram.rank0.pwrStateTime::REF   8817120000                       # Time in different power states
system.mem_ctrls.dram.rank0.pwrStateTime::SREF            0                       # Time in different power states
system.mem_ctrls.dram.rank0.pwrStateTime::PRE_PDN            0                       # Time in different power states
system.mem_ctrls.dram.rank0.pwrStateTime::ACT 128429790500                       # Time in different power states
system.mem_ctrls.dram.rank0.pwrStateTime::ACT_PDN            0                       # Time in different power states
system.mem_ctrls.dram.rank1.actEnergy      1208702040                       # Energy for activate commands per rank (pJ)
system.mem_ctrls.dram.rank1.preEnergy       642436575                       # Energy for precharge commands per rank (pJ)
system.mem_ctrls.dram.rank1.readEnergy     5311388880                       # Energy for read commands per rank (pJ)
system.mem_ctrls.dram.rank1.writeEnergy    3859788060                       # Energy for write commands per rank (pJ)
system.mem_ctrls.dram.rank1.refreshEnergy 20843671680.000004                       # Energy for refresh commands per rank (pJ)
system.mem_ctrls.dram.rank1.actBackEnergy  61657780650                       # Energy for active background per rank (pJ)
system.mem_ctrls.dram.rank1.preBackEnergy  49474804320                       # Energy for precharge background per rank (pJ)
system.mem_ctrls.dram.rank1.actPowerDownEnergy            0                       # Energy for active power-down per rank (pJ)
system.mem_ctrls.dram.rank1.prePowerDownEnergy            0                       # Energy for precharge power-down per rank (pJ)
system.mem_ctrls.dram.rank1.selfRefreshEnergy            0                       # Energy for self refresh per rank (pJ)
system.mem_ctrls.dram.rank1.totalEnergy  142998572205                       # Total energy per rank (pJ)
system.mem_ctrls.dram.rank1.averagePower   541.548298                       # Core power per rank (mW)
system.mem_ctrls.dram.rank1.totalIdleTime            0                       # Total Idle time Per DRAM Rank
system.mem_ctrls.dram.rank1.pwrStateTime::IDLE 126662967250                       # Time in different power states
system.mem_ctrls.dram.rank1.pwrStateTime::REF   8817120000                       # Time in different power states
system.mem_ctrls.dram.rank1.pwrStateTime::SREF            0                       # Time in different power states
system.mem_ctrls.dram.rank1.pwrStateTime::PRE_PDN            0                       # Time in different power states
system.mem_ctrls.dram.rank1.pwrStateTime::ACT 128574979750                       # Time in different power states
system.mem_ctrls.dram.rank1.pwrStateTime::ACT_PDN            0                       # Time in different power states
system.mem_ctrls.power_state.pwrStateResidencyTicks::UNDEFINED 264055067000                       # Cumulative time (in ticks) in various power states
system.membus.trans_dist::ReadResp                608                       # Transaction distribution
system.membus.trans_dist::WritebackDirty      1479319                       # Transaction distribution
system.membus.trans_dist::CleanEvict              462                       # Transaction distribution
system.membus.trans_dist::ReadExReq           1487490                       # Transaction distribution
system.membus.trans_dist::ReadExResp          1487490                       # Transaction distribution
system.membus.trans_dist::ReadSharedReq           608                       # Transaction distribution
system.membus.pkt_count_system.l2.mem_side_port::system.mem_ctrls.port      4455977                       # Packet count per connected requestor and responder (bytes)
system.membus.pkt_count::total                4455977                       # Packet count per connected requestor and responder (bytes)
system.membus.pkt_size_system.l2.mem_side_port::system.mem_ctrls.port    189914688                       # Cumulative packet size per connected requestor and responder (bytes)
system.membus.pkt_size::total               189914688                       # Cumulative packet size per connected requestor and responder (bytes)
system.membus.snoops                                0                       # Total snoops (count)
system.membus.snoopTraffic                          0                       # Total snoop traffic (bytes)
system.membus.snoop_fanout::samples           1488098                       # Request fanout histogram
system.membus.snoop_fanout::mean                    0                       # Request fanout histogram
system.membus.snoop_fanout::stdev                   0                       # Request fanout histogram
system.membus.snoop_fanout::underflows              0      0.00%      0.00% # Request fanout histogram
system.membus.snoop_fanout::0                 1488098    100.00%    100.00% # Request fanout histogram
system.membus.snoop_fanout::1                       0      0.00%    100.00% # Request fanout histogram
system.membus.snoop_fanout::overflows               0      0.00%    100.00% # Request fanout histogram
system.membus.snoop_fanout::min_value               0                       # Request fanout histogram
system.membus.snoop_fanout::max_value               0                       # Request fanout histogram
system.membus.snoop_fanout::total             1488098                       # Request fanout histogram
system.membus.power_state.pwrStateResidencyTicks::UNDEFINED 264055067000                       # Cumulative time (in ticks) in various power states
system.membus.reqLayer0.occupancy          8885155000                       # Layer occupancy (ticks)
system.membus.reqLayer0.utilization               3.4                       # Layer utilization (%)
system.membus.respLayer1.occupancy         7832473250                       # Layer occupancy (ticks)
system.membus.respLayer1.utilization              3.0                       # Layer utilization (%)
system.tol2bus.trans_dist::ReadResp             12792                       # Transaction distribution
system.tol2bus.trans_dist::WritebackDirty      2980334                       # Transaction distribution
system.tol2bus.trans_dist::WritebackClean          905                       # Transaction distribution
system.tol2bus.trans_dist::CleanEvict            6514                       # Transaction distribution
system.tol2bus.trans_dist::ReadExReq          1496205                       # Transaction distribution
system.tol2bus.trans_dist::ReadExResp         1496205                       # Transaction distribution
system.tol2bus.trans_dist::ReadCleanReq          1031                       # Transaction distribution
system.tol2bus.trans_dist::ReadSharedReq        11761                       # Transaction distribution
system.tol2bus.pkt_count_system.cpu.icache.mem_side_port::system.l2.cpu_side_port         2967                       # Packet count per connected requestor and responder (bytes)
system.tol2bus.pkt_count_system.cpu.dcache.mem_side_port::system.l2.cpu_side_port      4522874                       # Packet count per connected requestor and responder (bytes)
system.tol2bus.pkt_count::total               4525841                       # Packet count per connected requestor and responder (bytes)
system.tol2bus.pkt_size_system.cpu.icache.mem_side_port::system.l2.cpu_side_port       123904                       # Cumulative packet size per connected requestor and responder (bytes)
system.tol2bus.pkt_size_system.cpu.dcache.mem_side_port::system.l2.cpu_side_port    192574784                       # Cumulative packet size per connected requestor and responder (bytes)
system.tol2bus.pkt_size::total              192698688                       # Cumulative packet size per connected requestor and responder (bytes)
system.tol2bus.snoops                         1479906                       # Total snoops (count)
system.tol2bus.snoopTraffic                  94676416                       # Total snoop traffic (bytes)
system.tol2bus.snoop_fanout::samples          2988903                       # Request fanout histogram
system.tol2bus.snoop_fanout::mean            0.002005                       # Request fanout histogram
system.tol2bus.snoop_fanout::stdev           0.044733                       # Request fanout histogram
system.tol2bus.snoop_fanout::underflows             0      0.00%      0.00% # Request fanout histogram
system.tol2bus.snoop_fanout::0                2982910     99.80%     99.80% # Request fanout histogram
system.tol2bus.snoop_fanout::1                   5993      0.20%    100.00% # Request fanout histogram
system.tol2bus.snoop_fanout::2                      0      0.00%    100.00% # Request fanout histogram
system.tol2bus.snoop_fanout::overflows              0      0.00%    100.00% # Request fanout histogram
system.tol2bus.snoop_fanout::min_value              0                       # Request fanout histogram
system.tol2bus.snoop_fanout::max_value              1                       # Request fanout histogram
system.tol2bus.snoop_fanout::total            2988903                       # Request fanout histogram
system.tol2bus.power_state.pwrStateResidencyTicks::UNDEFINED 264055067000                       # Cumulative time (in ticks) in various power states
system.tol2bus.reqLayer0.occupancy         6020684000                       # Layer occupancy (ticks)
system.tol2bus.reqLayer0.utilization              2.3                       # Layer utilization (%)
system.tol2bus.respLayer0.occupancy           3093999                       # Layer occupancy (ticks)
system.tol2bus.respLayer0.utilization             0.0                       # Layer utilization (%)
system.tol2bus.respLayer1.occupancy        4523900997                       # Layer occupancy (ticks)
system.tol2bus.respLayer1.utilization             1.7                       # Layer utilization (%)
system.voltage_domain.voltage                       1                       # Voltage in Volts

---------- End Simulation Statistics   ----------
