
---------- Begin Simulation Statistics ----------
final_tick                               133595644000                       # Number of ticks from beginning of simulation (restored from checkpoints and never reset)
host_inst_rate                                 414184                       # Simulator instruction rate (inst/s)
host_mem_usage                                 665556                       # Number of bytes of host memory used
host_op_rate                                   418751                       # Simulator op (including micro ops) rate (op/s)
host_seconds                                   241.44                       # Real time elapsed on the host
host_tick_rate                              553331183                       # Simulator tick rate (ticks/s)
sim_freq                                 1000000000000                       # Frequency of simulated ticks
sim_insts                                   100000000                       # Number of instructions simulated
sim_ops                                     101102842                       # Number of ops (including micro ops) simulated
sim_seconds                                  0.133596                       # Number of seconds simulated
sim_ticks                                133595644000                       # Number of ticks simulated
system.cpu.committedInsts                   100000000                       # Number of instructions committed
system.cpu.committedOps                     101102842                       # Number of ops (including micro ops) committed
system.cpu.cpi                               1.335956                       # CPI: cycles per instruction
system.cpu.discardedOps                        780475                       # Number of ops (including micro ops) which were discarded before commit
system.cpu.idleCycles                        14226259                       # Total number of cycles that the object has spent stopped
system.cpu.ipc                               0.748527                       # IPC: instructions per cycle
system.cpu.numCycles                        133595644                       # number of cpu cycles simulated
system.cpu.numFetchSuspends                         0                       # Number of times Execute suspended instruction fetching
system.cpu.numWorkItemsCompleted                    0                       # number of work items this cpu completed
system.cpu.numWorkItemsStarted                      0                       # number of work items this cpu started
system.cpu.op_class_0::No_OpClass                   0      0.00%      0.00% # Class of committed instruction
system.cpu.op_class_0::IntAlu                55116018     54.51%     54.51% # Class of committed instruction
system.cpu.op_class_0::IntMult                 167845      0.17%     54.68% # Class of committed instruction
system.cpu.op_class_0::IntDiv                       0      0.00%     54.68% # Class of committed instruction
system.cpu.op_class_0::FloatAdd                     0      0.00%     54.68% # Class of committed instruction
system.cpu.op_class_0::FloatCmp                     0      0.00%     54.68% # Class of committed instruction
system.cpu.op_class_0::FloatCvt                     0      0.00%     54.68% # Class of committed instruction
system.cpu.op_class_0::FloatMult                    0      0.00%     54.68% # Class of committed instruction
system.cpu.op_class_0::FloatMultAcc                 0      0.00%     54.68% # Class of committed instruction
system.cpu.op_class_0::FloatDiv                     0      0.00%     54.68% # Class of committed instruction
system.cpu.op_class_0::FloatMisc                    0      0.00%     54.68% # Class of committed instruction
system.cpu.op_class_0::FloatSqrt                    0      0.00%     54.68% # Class of committed instruction
system.cpu.op_class_0::SimdAdd                    376      0.00%     54.68% # Class of committed instruction
system.cpu.op_class_0::SimdAddAcc                   0      0.00%     54.68% # Class of committed instruction
system.cpu.op_class_0::SimdAlu                    466      0.00%     54.68% # Class of committed instruction
system.cpu.op_class_0::SimdCmp                    378      0.00%     54.68% # Class of committed instruction
system.cpu.op_class_0::SimdCvt                      0      0.00%     54.68% # Class of committed instruction
system.cpu.op_class_0::SimdMisc                    53      0.00%     54.68% # Class of committed instruction
system.cpu.op_class_0::SimdMult                     0      0.00%     54.68% # Class of committed instruction
system.cpu.op_class_0::SimdMultAcc                  0      0.00%     54.68% # Class of committed instruction
system.cpu.op_class_0::SimdShift                    0      0.00%     54.68% # Class of committed instruction
system.cpu.op_class_0::SimdShiftAcc                 0      0.00%     54.68% # Class of committed instruction
system.cpu.op_class_0::SimdDiv                      0      0.00%     54.68% # Class of committed instruction
system.cpu.op_class_0::SimdSqrt                     0      0.00%     54.68% # Class of committed instruction
system.cpu.op_class_0::SimdFloatAdd            267609      0.26%     54.95% # Class of committed instruction
system.cpu.op_class_0::SimdFloatAlu                 0      0.00%     54.95% # Class of committed instruction
system.cpu.op_class_0::SimdFloatCmp            259630      0.26%     55.20% # Class of committed instruction
system.cpu.op_class_0::SimdFloatCvt            161456      0.16%     55.36% # Class of committed instruction
system.cpu.op_class_0::SimdFloatDiv             54308      0.05%     55.42% # Class of committed instruction
system.cpu.op_class_0::SimdFloatMisc           483616      0.48%     55.90% # Class of committed instruction
system.cpu.op_class_0::SimdFloatMult            33524      0.03%     55.93% # Class of committed instruction
system.cpu.op_class_0::SimdFloatMultAcc         11115      0.01%     55.94% # Class of committed instruction
system.cpu.op_class_0::SimdFloatSqrt                0      0.00%     55.94% # Class of committed instruction
system.cpu.op_class_0::SimdReduceAdd                0      0.00%     55.94% # Class of committed instruction
system.cpu.op_class_0::SimdReduceAlu                0      0.00%     55.94% # Class of committed instruction
system.cpu.op_class_0::SimdReduceCmp                0      0.00%     55.94% # Class of committed instruction
system.cpu.op_class_0::SimdFloatReduceAdd            0      0.00%     55.94% # Class of committed instruction
system.cpu.op_class_0::SimdFloatReduceCmp            0      0.00%     55.94% # Class of committed instruction
system.cpu.op_class_0::SimdAes                      0      0.00%     55.94% # Class of committed instruction
system.cpu.op_class_0::SimdAesMix                   0      0.00%     55.94% # Class of committed instruction
system.cpu.op_class_0::SimdSha1Hash                 0      0.00%     55.94% # Class of committed instruction
system.cpu.op_class_0::SimdSha1Hash2                0      0.00%     55.94% # Class of committed instruction
system.cpu.op_class_0::SimdSha256Hash               0      0.00%     55.94% # Class of committed instruction
system.cpu.op_class_0::SimdSha256Hash2              0      0.00%     55.94% # Class of committed instruction
system.cpu.op_class_0::SimdShaSigma2                0      0.00%     55.94% # Class of committed instruction
system.cpu.op_class_0::SimdShaSigma3                0      0.00%     55.94% # Class of committed instruction
system.cpu.op_class_0::SimdPredAlu                  0      0.00%     55.94% # Class of committed instruction
system.cpu.op_class_0::MemRead               38167367     37.75%     93.69% # Class of committed instruction
system.cpu.op_class_0::MemWrite               6379081      6.31%    100.00% # Class of committed instruction
system.cpu.op_class_0::FloatMemRead                 0      0.00%    100.00% # Class of committed instruction
system.cpu.op_class_0::FloatMemWrite                0      0.00%    100.00% # Class of committed instruction
system.cpu.op_class_0::IprAccess                    0      0.00%    100.00% # Class of committed instruction
system.cpu.op_class_0::InstPrefetch                 0      0.00%    100.00% # Class of committed instruction
system.cpu.op_class_0::total                101102842                       # Class of committed instruction
system.cpu.tickCycles                       119369385                       # Number of cycles that the object actually ticked
system.cpu.workload.numSyscalls                    32                       # Number of system calls
system.membus.snoop_filter.hit_multi_requests            0                       # Number of requests hitting in the snoop filter with multiple (>1) holders of the requested data.
system.membus.snoop_filter.hit_multi_snoops            0                       # Number of snoops hitting in the snoop filter with multiple (>1) holders of the requested data.
system.membus.snoop_filter.hit_single_requests          258                       # Number of requests hitting in the snoop filter with a single holder of the requested data.
system.membus.snoop_filter.hit_single_snoops            0                       # Number of snoops hitting in the snoop filter with a single holder of the requested data.
system.membus.snoop_filter.tot_requests          5768                       # Total number of requests made to the snoop filter.
system.membus.snoop_filter.tot_snoops               0                       # Total number of snoops made to the snoop filter.
system.tol2bus.snoop_filter.hit_multi_requests        27431                       # Number of requests hitting in the snoop filter with multiple (>1) holders of the requested data.
system.tol2bus.snoop_filter.hit_multi_snoops            2                       # Number of snoops hitting in the snoop filter with multiple (>1) holders of the requested data.
system.tol2bus.snoop_filter.hit_single_requests       718007                       # Number of requests hitting in the snoop filter with a single holder of the requested data.
system.tol2bus.snoop_filter.hit_single_snoops           92                       # Number of snoops hitting in the snoop filter with a single holder of the requested data.
system.tol2bus.snoop_filter.tot_requests      1437160                       # Total number of requests made to the snoop filter.
system.tol2bus.snoop_filter.tot_snoops             94                       # Total number of snoops made to the snoop filter.
system.clk_domain.clock                          1000                       # Clock period in ticks
system.cpu.branchPred.lookups                 6489936                       # Number of BP lookups
system.cpu.branchPred.condPredicted           5086949                       # Number of conditional branches predicted
system.cpu.branchPred.condIncorrect            349113                       # Number of conditional branches incorrect
system.cpu.branchPred.BTBLookups              4076659                       # Number of BTB lookups
system.cpu.branchPred.BTBHits                 4069650                       # Number of BTB hits
system.cpu.branchPred.BTBHitPct             99.828070                       # BTB Hit Percentage
system.cpu.branchPred.RASUsed                  314719                       # Number of times the RAS was used to get a target.
system.cpu.branchPred.RASIncorrect                  4                       # Number of incorrect RAS predictions.
system.cpu.branchPred.indirectLookups          675622                       # Number of indirect predictor lookups.
system.cpu.branchPred.indirectHits             102895                       # Number of indirect target hits.
system.cpu.branchPred.indirectMisses           572727                       # Number of indirect misses.
system.cpu.branchPred.indirectMispredicted        37435                       # Number of mispredicted indirect branches.
system.cpu.dcache.demand_hits::.cpu.data     43763299                       # number of demand (read+write) hits
system.cpu.dcache.demand_hits::total         43763299                       # number of demand (read+write) hits
system.cpu.dcache.overall_hits::.cpu.data     43771889                       # number of overall hits
system.cpu.dcache.overall_hits::total        43771889                       # number of overall hits
system.cpu.dcache.demand_misses::.cpu.data       135591                       # number of demand (read+write) misses
system.cpu.dcache.demand_misses::total         135591                       # number of demand (read+write) misses
system.cpu.dcache.overall_misses::.cpu.data       135749                       # number of overall misses
system.cpu.dcache.overall_misses::total        135749                       # number of overall misses
system.cpu.dcache.demand_miss_latency::.cpu.data   4602869000                       # number of demand (read+write) miss cycles
system.cpu.dcache.demand_miss_latency::total   4602869000                       # number of demand (read+write) miss cycles
system.cpu.dcache.overall_miss_latency::.cpu.data   4602869000                       # number of overall miss cycles
system.cpu.dcache.overall_miss_latency::total   4602869000                       # number of overall miss cycles
system.cpu.dcache.demand_accesses::.cpu.data     43898890                       # number of demand (read+write) accesses
system.cpu.dcache.demand_accesses::total     43898890                       # number of demand (read+write) accesses
system.cpu.dcache.overall_accesses::.cpu.data     43907638                       # number of overall (read+write) accesses
system.cpu.dcache.overall_accesses::total     43907638                       # number of overall (read+write) accesses
system.cpu.dcache.demand_miss_rate::.cpu.data     0.003089                       # miss rate for demand accesses
system.cpu.dcache.demand_miss_rate::total     0.003089                       # miss rate for demand accesses
system.cpu.dcache.overall_miss_rate::.cpu.data     0.003092                       # miss rate for overall accesses
system.cpu.dcache.overall_miss_rate::total     0.003092                       # miss rate for overall accesses
system.cpu.dcache.demand_avg_miss_latency::.cpu.data 33946.714752                       # average overall miss latency
system.cpu.dcache.demand_avg_miss_latency::total 33946.714752                       # average overall miss latency
system.cpu.dcache.overall_avg_miss_latency::.cpu.data 33907.203736                       # average overall miss latency
system.cpu.dcache.overall_avg_miss_latency::total 33907.203736                       # average overall miss latency
system.cpu.dcache.blocked_cycles::no_mshrs           49                       # number of cycles access was blocked
system.cpu.dcache.blocked_cycles::no_targets            0                       # number of cycles access was blocked
system.cpu.dcache.blocked::no_mshrs                 1                       # number of cycles access was blocked
system.cpu.dcache.blocked::no_targets               0                       # number of cycles access was blocked
system.cpu.dcache.avg_blocked_cycles::no_mshrs           49                       # average number of cycles each access was blocked
system.cpu.dcache.avg_blocked_cycles::no_targets          nan                       # average number of cycles each access was blocked
system.cpu.dcache.writebacks::.writebacks       122610                       # number of writebacks
system.cpu.dcache.writebacks::total            122610                       # number of writebacks
system.cpu.dcache.demand_mshr_hits::.cpu.data         9511                       # number of demand (read+write) MSHR hits
system.cpu.dcache.demand_mshr_hits::total         9511                       # number of demand (read+write) MSHR hits
system.cpu.dcache.overall_mshr_hits::.cpu.data         9511                       # number of overall MSHR hits
system.cpu.dcache.overall_mshr_hits::total         9511                       # number of overall MSHR hits
system.cpu.dcache.demand_mshr_misses::.cpu.data       126080                       # number of demand (read+write) MSHR misses
system.cpu.dcache.demand_mshr_misses::total       126080                       # number of demand (read+write) MSHR misses
system.cpu.dcache.overall_mshr_misses::.cpu.data       126226                       # number of overall MSHR misses
system.cpu.dcache.overall_mshr_misses::total       126226                       # number of overall MSHR misses
system.cpu.dcache.demand_mshr_miss_latency::.cpu.data   3969358000                       # number of demand (read+write) MSHR miss cycles
system.cpu.dcache.demand_mshr_miss_latency::total   3969358000                       # number of demand (read+write) MSHR miss cycles
system.cpu.dcache.overall_mshr_miss_latency::.cpu.data   3980725000                       # number of overall MSHR miss cycles
system.cpu.dcache.overall_mshr_miss_latency::total   3980725000                       # number of overall MSHR miss cycles
system.cpu.dcache.demand_mshr_miss_rate::.cpu.data     0.002872                       # mshr miss rate for demand accesses
system.cpu.dcache.demand_mshr_miss_rate::total     0.002872                       # mshr miss rate for demand accesses
system.cpu.dcache.overall_mshr_miss_rate::.cpu.data     0.002875                       # mshr miss rate for overall accesses
system.cpu.dcache.overall_mshr_miss_rate::total     0.002875                       # mshr miss rate for overall accesses
system.cpu.dcache.demand_avg_mshr_miss_latency::.cpu.data 31482.852157                       # average overall mshr miss latency
system.cpu.dcache.demand_avg_mshr_miss_latency::total 31482.852157                       # average overall mshr miss latency
system.cpu.dcache.overall_avg_mshr_miss_latency::.cpu.data 31536.490105                       # average overall mshr miss latency
system.cpu.dcache.overall_avg_mshr_miss_latency::total 31536.490105                       # average overall mshr miss latency
system.cpu.dcache.replacements                 125203                       # number of replacements
system.cpu.dcache.ReadReq_hits::.cpu.data     37506541                       # number of ReadReq hits
system.cpu.dcache.ReadReq_hits::total        37506541                       # number of ReadReq hits
system.cpu.dcache.ReadReq_misses::.cpu.data        71517                       # number of ReadReq misses
system.cpu.dcache.ReadReq_misses::total         71517                       # number of ReadReq misses
system.cpu.dcache.ReadReq_miss_latency::.cpu.data   2401794000                       # number of ReadReq miss cycles
system.cpu.dcache.ReadReq_miss_latency::total   2401794000                       # number of ReadReq miss cycles
system.cpu.dcache.ReadReq_accesses::.cpu.data     37578058                       # number of ReadReq accesses(hits+misses)
system.cpu.dcache.ReadReq_accesses::total     37578058                       # number of ReadReq accesses(hits+misses)
system.cpu.dcache.ReadReq_miss_rate::.cpu.data     0.001903                       # miss rate for ReadReq accesses
system.cpu.dcache.ReadReq_miss_rate::total     0.001903                       # miss rate for ReadReq accesses
system.cpu.dcache.ReadReq_avg_miss_latency::.cpu.data 33583.539578                       # average ReadReq miss latency
system.cpu.dcache.ReadReq_avg_miss_latency::total 33583.539578                       # average ReadReq miss latency
system.cpu.dcache.ReadReq_mshr_hits::.cpu.data         3403                       # number of ReadReq MSHR hits
system.cpu.dcache.ReadReq_mshr_hits::total         3403                       # number of ReadReq MSHR hits
system.cpu.dcache.ReadReq_mshr_misses::.cpu.data        68114                       # number of ReadReq MSHR misses
system.cpu.dcache.ReadReq_mshr_misses::total        68114                       # number of ReadReq MSHR misses
system.cpu.dcache.ReadReq_mshr_miss_latency::.cpu.data   2179281000                       # number of ReadReq MSHR miss cycles
system.cpu.dcache.ReadReq_mshr_miss_latency::total   2179281000                       # number of ReadReq MSHR miss cycles
system.cpu.dcache.ReadReq_mshr_miss_rate::.cpu.data     0.001813                       # mshr miss rate for ReadReq accesses
system.cpu.dcache.ReadReq_mshr_miss_rate::total     0.001813                       # mshr miss rate for ReadReq accesses
system.cpu.dcache.ReadReq_avg_mshr_miss_latency::.cpu.data 31994.611974                       # average ReadReq mshr miss latency
system.cpu.dcache.ReadReq_avg_mshr_miss_latency::total 31994.611974                       # average ReadReq mshr miss latency
system.cpu.dcache.WriteReq_hits::.cpu.data      6256758                       # number of WriteReq hits
system.cpu.dcache.WriteReq_hits::total        6256758                       # number of WriteReq hits
system.cpu.dcache.WriteReq_misses::.cpu.data        64074                       # number of WriteReq misses
system.cpu.dcache.WriteReq_misses::total        64074                       # number of WriteReq misses
system.cpu.dcache.WriteReq_miss_latency::.cpu.data   2201075000                       # number of WriteReq miss cycles
system.cpu.dcache.WriteReq_miss_latency::total   2201075000                       # number of WriteReq miss cycles
system.cpu.dcache.WriteReq_accesses::.cpu.data      6320832                       # number of WriteReq accesses(hits+misses)
system.cpu.dcache.WriteReq_accesses::total      6320832                       # number of WriteReq accesses(hits+misses)
system.cpu.dcache.WriteReq_miss_rate::.cpu.data     0.010137                       # miss rate for WriteReq accesses
system.cpu.dcache.WriteReq_miss_rate::total     0.010137                       # miss rate for WriteReq accesses
system.cpu.dcache.WriteReq_avg_miss_latency::.cpu.data 34352.077286                       # average WriteReq miss latency
system.cpu.dcache.WriteReq_avg_miss_latency::total 34352.077286                       # average WriteReq miss latency
system.cpu.dcache.WriteReq_mshr_hits::.cpu.data         6108                       # number of WriteReq MSHR hits
system.cpu.dcache.WriteReq_mshr_hits::total         6108                       # number of WriteReq MSHR hits
system.cpu.dcache.WriteReq_mshr_misses::.cpu.data        57966                       # number of WriteReq MSHR misses
system.cpu.dcache.WriteReq_mshr_misses::total        57966                       # number of WriteReq MSHR misses
system.cpu.dcache.WriteReq_mshr_miss_latency::.cpu.data   1790077000                       # number of WriteReq MSHR miss cycles
system.cpu.dcache.WriteReq_mshr_miss_latency::total   1790077000                       # number of WriteReq MSHR miss cycles
system.cpu.dcache.WriteReq_mshr_miss_rate::.cpu.data     0.009171                       # mshr miss rate for WriteReq accesses
system.cpu.dcache.WriteReq_mshr_miss_rate::total     0.009171                       # mshr miss rate for WriteReq accesses
system.cpu.dcache.WriteReq_avg_mshr_miss_latency::.cpu.data 30881.499500                       # average WriteReq mshr miss latency
system.cpu.dcache.WriteReq_avg_mshr_miss_latency::total 30881.499500                       # average WriteReq mshr miss latency
system.cpu.dcache.SoftPFReq_hits::.cpu.data         8590                       # number of SoftPFReq hits
system.cpu.dcache.SoftPFReq_hits::total          8590                       # number of SoftPFReq hits
system.cpu.dcache.SoftPFReq_misses::.cpu.data          158                       # number of SoftPFReq misses
system.cpu.dcache.SoftPFReq_misses::total          158                       # number of SoftPFReq misses
system.cpu.dcache.SoftPFReq_accesses::.cpu.data         8748                       # number of SoftPFReq accesses(hits+misses)
system.cpu.dcache.SoftPFReq_accesses::total         8748                       # number of SoftPFReq accesses(hits+misses)
system.cpu.dcache.SoftPFReq_miss_rate::.cpu.data     0.018061                       # miss rate for SoftPFReq accesses
system.cpu.dcache.SoftPFReq_miss_rate::total     0.018061                       # miss rate for SoftPFReq accesses
system.cpu.dcache.SoftPFReq_mshr_misses::.cpu.data          146                       # number of SoftPFReq MSHR misses
system.cpu.dcache.SoftPFReq_mshr_misses::total          146                       # number of SoftPFReq MSHR misses
system.cpu.dcache.SoftPFReq_mshr_miss_latency::.cpu.data     11367000                       # number of SoftPFReq MSHR miss cycles
system.cpu.dcache.SoftPFReq_mshr_miss_latency::total     11367000                       # number of SoftPFReq MSHR miss cycles
system.cpu.dcache.SoftPFReq_mshr_miss_rate::.cpu.data     0.016690                       # mshr miss rate for SoftPFReq accesses
system.cpu.dcache.SoftPFReq_mshr_miss_rate::total     0.016690                       # mshr miss rate for SoftPFReq accesses
system.cpu.dcache.SoftPFReq_avg_mshr_miss_latency::.cpu.data 77856.164384                       # average SoftPFReq mshr miss latency
system.cpu.dcache.SoftPFReq_avg_mshr_miss_latency::total 77856.164384                       # average SoftPFReq mshr miss latency
system.cpu.dcache.LoadLockedReq_hits::.cpu.data          165                       # number of LoadLockedReq hits
system.cpu.dcache.LoadLockedReq_hits::total          165                       # number of LoadLockedReq hits
system.cpu.dcache.LoadLockedReq_misses::.cpu.data            1                       # number of LoadLockedReq misses
system.cpu.dcache.LoadLockedReq_misses::total            1                       # number of LoadLockedReq misses
system.cpu.dcache.LoadLockedReq_miss_latency::.cpu.data       109000                       # number of LoadLockedReq miss cycles
system.cpu.dcache.LoadLockedReq_miss_latency::total       109000                       # number of LoadLockedReq miss cycles
system.cpu.dcache.LoadLockedReq_accesses::.cpu.data          166                       # number of LoadLockedReq accesses(hits+misses)
system.cpu.dcache.LoadLockedReq_accesses::total          166                       # number of LoadLockedReq accesses(hits+misses)
system.cpu.dcache.LoadLockedReq_miss_rate::.cpu.data     0.006024                       # miss rate for LoadLockedReq accesses
system.cpu.dcache.LoadLockedReq_miss_rate::total     0.006024                       # miss rate for LoadLockedReq accesses
system.cpu.dcache.LoadLockedReq_avg_miss_latency::.cpu.data       109000                       # average LoadLockedReq miss latency
system.cpu.dcache.LoadLockedReq_avg_miss_latency::total       109000                       # average LoadLockedReq miss latency
system.cpu.dcache.LoadLockedReq_mshr_misses::.cpu.data            1                       # number of LoadLockedReq MSHR misses
system.cpu.dcache.LoadLockedReq_mshr_misses::total            1                       # number of LoadLockedReq MSHR misses
system.cpu.dcache.LoadLockedReq_mshr_miss_latency::.cpu.data       107000                       # number of LoadLockedReq MSHR miss cycles
system.cpu.dcache.LoadLockedReq_mshr_miss_latency::total       107000                       # number of LoadLockedReq MSHR miss cycles
system.cpu.dcache.LoadLockedReq_mshr_miss_rate::.cpu.data     0.006024                       # mshr miss rate for LoadLockedReq accesses
system.cpu.dcache.LoadLockedReq_mshr_miss_rate::total     0.006024                       # mshr miss rate for LoadLockedReq accesses
system.cpu.dcache.LoadLockedReq_avg_mshr_miss_latency::.cpu.data       107000                       # average LoadLockedReq mshr miss latency
system.cpu.dcache.LoadLockedReq_avg_mshr_miss_latency::total       107000                       # average LoadLockedReq mshr miss latency
system.cpu.dcache.StoreCondReq_hits::.cpu.data          166                       # number of StoreCondReq hits
system.cpu.dcache.StoreCondReq_hits::total          166                       # number of StoreCondReq hits
system.cpu.dcache.StoreCondReq_accesses::.cpu.data          166                       # number of StoreCondReq accesses(hits+misses)
system.cpu.dcache.StoreCondReq_accesses::total          166                       # number of StoreCondReq accesses(hits+misses)
system.cpu.dcache.power_state.pwrStateResidencyTicks::UNDEFINED 133595644000                       # Cumulative time (in ticks) in various power states
system.cpu.dcache.tags.tagsinuse          1012.490806                       # Cycle average of tags in use
system.cpu.dcache.tags.total_refs            43898447                       # Total number of references to valid blocks.
system.cpu.dcache.tags.sampled_refs            126227                       # Sample count of references to valid blocks.
system.cpu.dcache.tags.avg_refs            347.773828                       # Average number of references to valid blocks.
system.cpu.dcache.tags.warmup_cycle            223000                       # Cycle when the warmup percentage was hit.
system.cpu.dcache.tags.occ_blocks::.cpu.data  1012.490806                       # Average occupied blocks per requestor
system.cpu.dcache.tags.occ_percent::.cpu.data     0.988761                       # Average percentage of cache occupancy
system.cpu.dcache.tags.occ_percent::total     0.988761                       # Average percentage of cache occupancy
system.cpu.dcache.tags.occ_task_id_blocks::1024         1024                       # Occupied blocks per task id
system.cpu.dcache.tags.age_task_id_blocks_1024::0            5                       # Occupied blocks per task id
system.cpu.dcache.tags.age_task_id_blocks_1024::1           41                       # Occupied blocks per task id
system.cpu.dcache.tags.age_task_id_blocks_1024::2          237                       # Occupied blocks per task id
system.cpu.dcache.tags.age_task_id_blocks_1024::3          617                       # Occupied blocks per task id
system.cpu.dcache.tags.age_task_id_blocks_1024::4          124                       # Occupied blocks per task id
system.cpu.dcache.tags.occ_task_id_percent::1024            1                       # Percentage of cache occupancy per task id
system.cpu.dcache.tags.tag_accesses          44034197                       # Number of tag accesses
system.cpu.dcache.tags.data_accesses         44034197                       # Number of data accesses
system.cpu.dcache.tags.power_state.pwrStateResidencyTicks::UNDEFINED 133595644000                       # Cumulative time (in ticks) in various power states
system.cpu.dtb.instHits                             0                       # ITB inst hits
system.cpu.dtb.instMisses                           0                       # ITB inst misses
system.cpu.dtb.readHits                             0                       # DTB read hits
system.cpu.dtb.readMisses                           0                       # DTB read misses
system.cpu.dtb.writeHits                            0                       # DTB write hits
system.cpu.dtb.writeMisses                          0                       # DTB write misses
system.cpu.dtb.inserts                              0                       # Number of times an entry is inserted into the TLB
system.cpu.dtb.flushTlb                             0                       # Number of times complete TLB was flushed
system.cpu.dtb.flushTlbMva                          0                       # Number of times TLB was flushed by MVA
system.cpu.dtb.flushTlbMvaAsid                      0                       # Number of times TLB was flushed by MVA & ASID
system.cpu.dtb.flushTlbAsid                         0                       # Number of times TLB was flushed by ASID
system.cpu.dtb.flushedEntries                       0                       # Number of entries that have been flushed from TLB
system.cpu.dtb.alignFaults                          0                       # Number of TLB faults due to alignment restrictions
system.cpu.dtb.prefetchFaults                       0                       # Number of TLB faults due to prefetch
system.cpu.dtb.domainFaults                         0                       # Number of TLB faults due to domain restrictions
system.cpu.dtb.permsFaults                          0                       # Number of TLB faults due to permissions restrictions
system.cpu.dtb.readAccesses                         0                       # DTB read accesses
system.cpu.dtb.writeAccesses                        0                       # DTB write accesses
system.cpu.dtb.instAccesses                         0                       # ITB inst accesses
system.cpu.dtb.hits                                 0                       # Total TLB (inst and data) hits
system.cpu.dtb.misses                               0                       # Total TLB (inst and data) misses
system.cpu.dtb.accesses                             0                       # Total TLB (inst and data) accesses
system.cpu.dtb.stage2_mmu.stage2_tlb.instHits            0                       # ITB inst hits
system.cpu.dtb.stage2_mmu.stage2_tlb.instMisses            0                       # ITB inst misses
system.cpu.dtb.stage2_mmu.stage2_tlb.readHits            0                       # DTB read hits
system.cpu.dtb.stage2_mmu.stage2_tlb.readMisses            0                       # DTB read misses
system.cpu.dtb.stage2_mmu.stage2_tlb.writeHits            0                       # DTB write hits
system.cpu.dtb.stage2_mmu.stage2_tlb.writeMisses            0                       # DTB write misses
system.cpu.dtb.stage2_mmu.stage2_tlb.inserts            0                       # Number of times an entry is inserted into the TLB
system.cpu.dtb.stage2_mmu.stage2_tlb.flushTlb            0                       # Number of times complete TLB was flushed
system.cpu.dtb.stage2_mmu.stage2_tlb.flushTlbMva            0                       # Number of times TLB was flushed by MVA
system.cpu.dtb.stage2_mmu.stage2_tlb.flushTlbMvaAsid            0                       # Number of times TLB was flushed by MVA & ASID
system.cpu.dtb.stage2_mmu.stage2_tlb.flushTlbAsid            0                       # Number of times TLB was flushed by ASID
system.cpu.dtb.stage2_mmu.stage2_tlb.flushedEntries            0                       # Number of entries that have been flushed from TLB
system.cpu.dtb.stage2_mmu.stage2_tlb.alignFaults            0                       # Number of TLB faults due to alignment restrictions
system.cpu.dtb.stage2_mmu.stage2_tlb.prefetchFaults            0                       # Number of TLB faults due to prefetch
system.cpu.dtb.stage2_mmu.stage2_tlb.domainFaults            0                       # Number of TLB faults due to domain restrictions
system.cpu.dtb.stage2_mmu.stage2_tlb.permsFaults            0                       # Number of TLB faults due to permissions restrictions
system.cpu.dtb.stage2_mmu.stage2_tlb.readAccesses            0                       # DTB read accesses
system.cpu.dtb.stage2_mmu.stage2_tlb.writeAccesses            0                       # DTB write accesses
system.cpu.dtb.stage2_mmu.stage2_tlb.instAccesses            0                       # ITB inst accesses
system.cpu.dtb.stage2_mmu.stage2_tlb.hits            0                       # Total TLB (inst and data) hits
system.cpu.dtb.stage2_mmu.stage2_tlb.misses            0                       # Total TLB (inst and data) misses
system.cpu.dtb.stage2_mmu.stage2_tlb.accesses            0                       # Total TLB (inst and data) accesses
system.cpu.dtb.stage2_mmu.stage2_tlb.walker.walks            0                       # Table walker walks requested
system.cpu.dtb.stage2_mmu.stage2_tlb.walker.requestOrigin_Requested::Data            0                       # Table walker requests started/completed, data/inst
system.cpu.dtb.stage2_mmu.stage2_tlb.walker.requestOrigin_Requested::Inst            0                       # Table walker requests started/completed, data/inst
system.cpu.dtb.stage2_mmu.stage2_tlb.walker.requestOrigin_Requested::total            0                       # Table walker requests started/completed, data/inst
system.cpu.dtb.stage2_mmu.stage2_tlb.walker.requestOrigin_Completed::Data            0                       # Table walker requests started/completed, data/inst
system.cpu.dtb.stage2_mmu.stage2_tlb.walker.requestOrigin_Completed::Inst            0                       # Table walker requests started/completed, data/inst
system.cpu.dtb.stage2_mmu.stage2_tlb.walker.requestOrigin_Completed::total            0                       # Table walker requests started/completed, data/inst
system.cpu.dtb.stage2_mmu.stage2_tlb.walker.requestOrigin::total            0                       # Table walker requests started/completed, data/inst
system.cpu.dtb.stage2_mmu.stage2_tlb.walker.power_state.pwrStateResidencyTicks::UNDEFINED 133595644000                       # Cumulative time (in ticks) in various power states
system.cpu.dtb.walker.walks                         0                       # Table walker walks requested
system.cpu.dtb.walker.requestOrigin_Requested::Data            0                       # Table walker requests started/completed, data/inst
system.cpu.dtb.walker.requestOrigin_Requested::Inst            0                       # Table walker requests started/completed, data/inst
system.cpu.dtb.walker.requestOrigin_Requested::total            0                       # Table walker requests started/completed, data/inst
system.cpu.dtb.walker.requestOrigin_Completed::Data            0                       # Table walker requests started/completed, data/inst
system.cpu.dtb.walker.requestOrigin_Completed::Inst            0                       # Table walker requests started/completed, data/inst
system.cpu.dtb.walker.requestOrigin_Completed::total            0                       # Table walker requests started/completed, data/inst
system.cpu.dtb.walker.requestOrigin::total            0                       # Table walker requests started/completed, data/inst
system.cpu.dtb.walker.power_state.pwrStateResidencyTicks::UNDEFINED 133595644000                       # Cumulative time (in ticks) in various power states
system.cpu.fetch2.intInstructions            48445785                       # Number of integer instructions successfully decoded
system.cpu.fetch2.fpInstructions                    0                       # Number of floating point instructions successfully decoded
system.cpu.fetch2.vecInstructions                   0                       # Number of SIMD instructions successfully decoded
system.cpu.fetch2.loadInstructions           40531402                       # Number of memory load instructions successfully decoded
system.cpu.fetch2.storeInstructions           6242597                       # Number of memory store instructions successfully decoded
system.cpu.fetch2.amoInstructions                   0                       # Number of memory atomic instructions successfully decoded
system.cpu.icache.demand_hits::.cpu.inst     16365264                       # number of demand (read+write) hits
system.cpu.icache.demand_hits::total         16365264                       # number of demand (read+write) hits
system.cpu.icache.overall_hits::.cpu.inst     16365264                       # number of overall hits
system.cpu.icache.overall_hits::total        16365264                       # number of overall hits
system.cpu.icache.demand_misses::.cpu.inst       592929                       # number of demand (read+write) misses
system.cpu.icache.demand_misses::total         592929                       # number of demand (read+write) misses
system.cpu.icache.overall_misses::.cpu.inst       592929                       # number of overall misses
system.cpu.icache.overall_misses::total        592929                       # number of overall misses
system.cpu.icache.demand_miss_latency::.cpu.inst  17284603000                       # number of demand (read+write) miss cycles
system.cpu.icache.demand_miss_latency::total  17284603000                       # number of demand (read+write) miss cycles
system.cpu.icache.overall_miss_latency::.cpu.inst  17284603000                       # number of overall miss cycles
system.cpu.icache.overall_miss_latency::total  17284603000                       # number of overall miss cycles
system.cpu.icache.demand_accesses::.cpu.inst     16958193                       # number of demand (read+write) accesses
system.cpu.icache.demand_accesses::total     16958193                       # number of demand (read+write) accesses
system.cpu.icache.overall_accesses::.cpu.inst     16958193                       # number of overall (read+write) accesses
system.cpu.icache.overall_accesses::total     16958193                       # number of overall (read+write) accesses
system.cpu.icache.demand_miss_rate::.cpu.inst     0.034964                       # miss rate for demand accesses
system.cpu.icache.demand_miss_rate::total     0.034964                       # miss rate for demand accesses
system.cpu.icache.overall_miss_rate::.cpu.inst     0.034964                       # miss rate for overall accesses
system.cpu.icache.overall_miss_rate::total     0.034964                       # miss rate for overall accesses
system.cpu.icache.demand_avg_miss_latency::.cpu.inst 29151.218780                       # average overall miss latency
system.cpu.icache.demand_avg_miss_latency::total 29151.218780                       # average overall miss latency
system.cpu.icache.overall_avg_miss_latency::.cpu.inst 29151.218780                       # average overall miss latency
system.cpu.icache.overall_avg_miss_latency::total 29151.218780                       # average overall miss latency
system.cpu.icache.blocked_cycles::no_mshrs            0                       # number of cycles access was blocked
system.cpu.icache.blocked_cycles::no_targets            0                       # number of cycles access was blocked
system.cpu.icache.blocked::no_mshrs                 0                       # number of cycles access was blocked
system.cpu.icache.blocked::no_targets               0                       # number of cycles access was blocked
system.cpu.icache.avg_blocked_cycles::no_mshrs          nan                       # average number of cycles each access was blocked
system.cpu.icache.avg_blocked_cycles::no_targets          nan                       # average number of cycles each access was blocked
system.cpu.icache.writebacks::.writebacks       592801                       # number of writebacks
system.cpu.icache.writebacks::total            592801                       # number of writebacks
system.cpu.icache.demand_mshr_misses::.cpu.inst       592929                       # number of demand (read+write) MSHR misses
system.cpu.icache.demand_mshr_misses::total       592929                       # number of demand (read+write) MSHR misses
system.cpu.icache.overall_mshr_misses::.cpu.inst       592929                       # number of overall MSHR misses
system.cpu.icache.overall_mshr_misses::total       592929                       # number of overall MSHR misses
system.cpu.icache.demand_mshr_miss_latency::.cpu.inst  16098745000                       # number of demand (read+write) MSHR miss cycles
system.cpu.icache.demand_mshr_miss_latency::total  16098745000                       # number of demand (read+write) MSHR miss cycles
system.cpu.icache.overall_mshr_miss_latency::.cpu.inst  16098745000                       # number of overall MSHR miss cycles
system.cpu.icache.overall_mshr_miss_latency::total  16098745000                       # number of overall MSHR miss cycles
system.cpu.icache.demand_mshr_miss_rate::.cpu.inst     0.034964                       # mshr miss rate for demand accesses
system.cpu.icache.demand_mshr_miss_rate::total     0.034964                       # mshr miss rate for demand accesses
system.cpu.icache.overall_mshr_miss_rate::.cpu.inst     0.034964                       # mshr miss rate for overall accesses
system.cpu.icache.overall_mshr_miss_rate::total     0.034964                       # mshr miss rate for overall accesses
system.cpu.icache.demand_avg_mshr_miss_latency::.cpu.inst 27151.218780                       # average overall mshr miss latency
system.cpu.icache.demand_avg_mshr_miss_latency::total 27151.218780                       # average overall mshr miss latency
system.cpu.icache.overall_avg_mshr_miss_latency::.cpu.inst 27151.218780                       # average overall mshr miss latency
system.cpu.icache.overall_avg_mshr_miss_latency::total 27151.218780                       # average overall mshr miss latency
system.cpu.icache.replacements                 592801                       # number of replacements
system.cpu.icache.ReadReq_hits::.cpu.inst     16365264                       # number of ReadReq hits
system.cpu.icache.ReadReq_hits::total        16365264                       # number of ReadReq hits
system.cpu.icache.ReadReq_misses::.cpu.inst       592929                       # number of ReadReq misses
system.cpu.icache.ReadReq_misses::total        592929                       # number of ReadReq misses
system.cpu.icache.ReadReq_miss_latency::.cpu.inst  17284603000                       # number of ReadReq miss cycles
system.cpu.icache.ReadReq_miss_latency::total  17284603000                       # number of ReadReq miss cycles
system.cpu.icache.ReadReq_accesses::.cpu.inst     16958193                       # number of ReadReq accesses(hits+misses)
system.cpu.icache.ReadReq_accesses::total     16958193                       # number of ReadReq accesses(hits+misses)
system.cpu.icache.ReadReq_miss_rate::.cpu.inst     0.034964                       # miss rate for ReadReq accesses
system.cpu.icache.ReadReq_miss_rate::total     0.034964                       # miss rate for ReadReq accesses
system.cpu.icache.ReadReq_avg_miss_latency::.cpu.inst 29151.218780                       # average ReadReq miss latency
system.cpu.icache.ReadReq_avg_miss_latency::total 29151.218780                       # average ReadReq miss latency
system.cpu.icache.ReadReq_mshr_misses::.cpu.inst       592929                       # number of ReadReq MSHR misses
system.cpu.icache.ReadReq_mshr_misses::total       592929                       # number of ReadReq MSHR misses
system.cpu.icache.ReadReq_mshr_miss_latency::.cpu.inst  16098745000                       # number of ReadReq MSHR miss cycles
system.cpu.icache.ReadReq_mshr_miss_latency::total  16098745000                       # number of ReadReq MSHR miss cycles
system.cpu.icache.ReadReq_mshr_miss_rate::.cpu.inst     0.034964                       # mshr miss rate for ReadReq accesses
system.cpu.icache.ReadReq_mshr_miss_rate::total     0.034964                       # mshr miss rate for ReadReq accesses
system.cpu.icache.ReadReq_avg_mshr_miss_latency::.cpu.inst 27151.218780                       # average ReadReq mshr miss latency
system.cpu.icache.ReadReq_avg_mshr_miss_latency::total 27151.218780                       # average ReadReq mshr miss latency
system.cpu.icache.power_state.pwrStateResidencyTicks::UNDEFINED 133595644000                       # Cumulative time (in ticks) in various power states
system.cpu.icache.tags.tagsinuse           127.983627                       # Cycle average of tags in use
system.cpu.icache.tags.total_refs            16958193                       # Total number of references to valid blocks.
system.cpu.icache.tags.sampled_refs            592929                       # Sample count of references to valid blocks.
system.cpu.icache.tags.avg_refs             28.600714                       # Average number of references to valid blocks.
system.cpu.icache.tags.warmup_cycle            108000                       # Cycle when the warmup percentage was hit.
system.cpu.icache.tags.occ_blocks::.cpu.inst   127.983627                       # Average occupied blocks per requestor
system.cpu.icache.tags.occ_percent::.cpu.inst     0.999872                       # Average percentage of cache occupancy
system.cpu.icache.tags.occ_percent::total     0.999872                       # Average percentage of cache occupancy
system.cpu.icache.tags.occ_task_id_blocks::1024          128                       # Occupied blocks per task id
system.cpu.icache.tags.age_task_id_blocks_1024::2           36                       # Occupied blocks per task id
system.cpu.icache.tags.age_task_id_blocks_1024::3           15                       # Occupied blocks per task id
system.cpu.icache.tags.age_task_id_blocks_1024::4           77                       # Occupied blocks per task id
system.cpu.icache.tags.occ_task_id_percent::1024            1                       # Percentage of cache occupancy per task id
system.cpu.icache.tags.tag_accesses          17551122                       # Number of tag accesses
system.cpu.icache.tags.data_accesses         17551122                       # Number of data accesses
system.cpu.icache.tags.power_state.pwrStateResidencyTicks::UNDEFINED 133595644000                       # Cumulative time (in ticks) in various power states
system.cpu.itb.instHits                             0                       # ITB inst hits
system.cpu.itb.instMisses                           0                       # ITB inst misses
system.cpu.itb.readHits                             0                       # DTB read hits
system.cpu.itb.readMisses                           0                       # DTB read misses
system.cpu.itb.writeHits                            0                       # DTB write hits
system.cpu.itb.writeMisses                          0                       # DTB write misses
system.cpu.itb.inserts                              0                       # Number of times an entry is inserted into the TLB
system.cpu.itb.flushTlb                             0                       # Number of times complete TLB was flushed
system.cpu.itb.flushTlbMva                          0                       # Number of times TLB was flushed by MVA
system.cpu.itb.flushTlbMvaAsid                      0                       # Number of times TLB was flushed by MVA & ASID
system.cpu.itb.flushTlbAsid                         0                       # Number of times TLB was flushed by ASID
system.cpu.itb.flushedEntries                       0                       # Number of entries that have been flushed from TLB
system.cpu.itb.alignFaults                          0                       # Number of TLB faults due to alignment restrictions
system.cpu.itb.prefetchFaults                       0                       # Number of TLB faults due to prefetch
system.cpu.itb.domainFaults                         0                       # Number of TLB faults due to domain restrictions
system.cpu.itb.permsFaults                          0                       # Number of TLB faults due to permissions restrictions
system.cpu.itb.readAccesses                         0                       # DTB read accesses
system.cpu.itb.writeAccesses                        0                       # DTB write accesses
system.cpu.itb.instAccesses                         0                       # ITB inst accesses
system.cpu.itb.hits                                 0                       # Total TLB (inst and data) hits
system.cpu.itb.misses                               0                       # Total TLB (inst and data) misses
system.cpu.itb.accesses                             0                       # Total TLB (inst and data) accesses
system.cpu.itb.stage2_mmu.stage2_tlb.instHits            0                       # ITB inst hits
system.cpu.itb.stage2_mmu.stage2_tlb.instMisses            0                       # ITB inst misses
system.cpu.itb.stage2_mmu.stage2_tlb.readHits            0                       # DTB read hits
system.cpu.itb.stage2_mmu.stage2_tlb.readMisses            0                       # DTB read misses
system.cpu.itb.stage2_mmu.stage2_tlb.writeHits            0                       # DTB write hits
system.cpu.itb.stage2_mmu.stage2_tlb.writeMisses            0                       # DTB write misses
system.cpu.itb.stage2_mmu.stage2_tlb.inserts            0                       # Number of times an entry is inserted into the TLB
system.cpu.itb.stage2_mmu.stage2_tlb.flushTlb            0                       # Number of times complete TLB was flushed
system.cpu.itb.stage2_mmu.stage2_tlb.flushTlbMva            0                       # Number of times TLB was flushed by MVA
system.cpu.itb.stage2_mmu.stage2_tlb.flushTlbMvaAsid            0                       # Number of times TLB was flushed by MVA & ASID
system.cpu.itb.stage2_mmu.stage2_tlb.flushTlbAsid            0                       # Number of times TLB was flushed by ASID
system.cpu.itb.stage2_mmu.stage2_tlb.flushedEntries            0                       # Number of entries that have been flushed from TLB
system.cpu.itb.stage2_mmu.stage2_tlb.alignFaults            0                       # Number of TLB faults due to alignment restrictions
system.cpu.itb.stage2_mmu.stage2_tlb.prefetchFaults            0                       # Number of TLB faults due to prefetch
system.cpu.itb.stage2_mmu.stage2_tlb.domainFaults            0                       # Number of TLB faults due to domain restrictions
system.cpu.itb.stage2_mmu.stage2_tlb.permsFaults            0                       # Number of TLB faults due to permissions restrictions
system.cpu.itb.stage2_mmu.stage2_tlb.readAccesses            0                       # DTB read accesses
system.cpu.itb.stage2_mmu.stage2_tlb.writeAccesses            0                       # DTB write accesses
system.cpu.itb.stage2_mmu.stage2_tlb.instAccesses            0                       # ITB inst accesses
system.cpu.itb.stage2_mmu.stage2_tlb.hits            0                       # Total TLB (inst and data) hits
system.cpu.itb.stage2_mmu.stage2_tlb.misses            0                       # Total TLB (inst and data) misses
system.cpu.itb.stage2_mmu.stage2_tlb.accesses            0                       # Total TLB (inst and data) accesses
system.cpu.itb.stage2_mmu.stage2_tlb.walker.walks            0                       # Table walker walks requested
system.cpu.itb.stage2_mmu.stage2_tlb.walker.requestOrigin_Requested::Data            0                       # Table walker requests started/completed, data/inst
system.cpu.itb.stage2_mmu.stage2_tlb.walker.requestOrigin_Requested::Inst            0                       # Table walker requests started/completed, data/inst
system.cpu.itb.stage2_mmu.stage2_tlb.walker.requestOrigin_Requested::total            0                       # Table walker requests started/completed, data/inst
system.cpu.itb.stage2_mmu.stage2_tlb.walker.requestOrigin_Completed::Data            0                       # Table walker requests started/completed, data/inst
system.cpu.itb.stage2_mmu.stage2_tlb.walker.requestOrigin_Completed::Inst            0                       # Table walker requests started/completed, data/inst
system.cpu.itb.stage2_mmu.stage2_tlb.walker.requestOrigin_Completed::total            0                       # Table walker requests started/completed, data/inst
system.cpu.itb.stage2_mmu.stage2_tlb.walker.requestOrigin::total            0                       # Table walker requests started/completed, data/inst
system.cpu.itb.stage2_mmu.stage2_tlb.walker.power_state.pwrStateResidencyTicks::UNDEFINED 133595644000                       # Cumulative time (in ticks) in various power states
system.cpu.itb.walker.walks                         0                       # Table walker walks requested
system.cpu.itb.walker.requestOrigin_Requested::Data            0                       # Table walker requests started/completed, data/inst
system.cpu.itb.walker.requestOrigin_Requested::Inst            0                       # Table walker requests started/completed, data/inst
system.cpu.itb.walker.requestOrigin_Requested::total            0                       # Table walker requests started/completed, data/inst
system.cpu.itb.walker.requestOrigin_Completed::Data            0                       # Table walker requests started/completed, data/inst
system.cpu.itb.walker.requestOrigin_Completed::Inst            0                       # Table walker requests started/completed, data/inst
system.cpu.itb.walker.requestOrigin_Completed::total            0                       # Table walker requests started/completed, data/inst
system.cpu.itb.walker.requestOrigin::total            0                       # Table walker requests started/completed, data/inst
system.cpu.itb.walker.power_state.pwrStateResidencyTicks::UNDEFINED 133595644000                       # Cumulative time (in ticks) in various power states
system.cpu.power_state.pwrStateResidencyTicks::ON 133595644000                       # Cumulative time (in ticks) in various power states
system.cpu.thread_0.numInsts                100000000                       # Number of Instructions committed
system.cpu.thread_0.numOps                  101102842                       # Number of Ops committed
system.cpu.thread_0.numMemRefs                      0                       # Number of Memory References
system.cpu_clk_domain.clock                      1000                       # Clock period in ticks
system.cpu_voltage_domain.voltage                   1                       # Voltage in Volts
system.l2.demand_hits::.cpu.inst               591636                       # number of demand (read+write) hits
system.l2.demand_hits::.cpu.data               122002                       # number of demand (read+write) hits
system.l2.demand_hits::total                   713638                       # number of demand (read+write) hits
system.l2.overall_hits::.cpu.inst              591636                       # number of overall hits
system.l2.overall_hits::.cpu.data              122002                       # number of overall hits
system.l2.overall_hits::total                  713638                       # number of overall hits
system.l2.demand_misses::.cpu.inst               1293                       # number of demand (read+write) misses
system.l2.demand_misses::.cpu.data               4225                       # number of demand (read+write) misses
system.l2.demand_misses::total                   5518                       # number of demand (read+write) misses
system.l2.overall_misses::.cpu.inst              1293                       # number of overall misses
system.l2.overall_misses::.cpu.data              4225                       # number of overall misses
system.l2.overall_misses::total                  5518                       # number of overall misses
system.l2.demand_miss_latency::.cpu.inst    126166000                       # number of demand (read+write) miss cycles
system.l2.demand_miss_latency::.cpu.data    418678000                       # number of demand (read+write) miss cycles
system.l2.demand_miss_latency::total        544844000                       # number of demand (read+write) miss cycles
system.l2.overall_miss_latency::.cpu.inst    126166000                       # number of overall miss cycles
system.l2.overall_miss_latency::.cpu.data    418678000                       # number of overall miss cycles
system.l2.overall_miss_latency::total       544844000                       # number of overall miss cycles
system.l2.demand_accesses::.cpu.inst           592929                       # number of demand (read+write) accesses
system.l2.demand_accesses::.cpu.data           126227                       # number of demand (read+write) accesses
system.l2.demand_accesses::total               719156                       # number of demand (read+write) accesses
system.l2.overall_accesses::.cpu.inst          592929                       # number of overall (read+write) accesses
system.l2.overall_accesses::.cpu.data          126227                       # number of overall (read+write) accesses
system.l2.overall_accesses::total              719156                       # number of overall (read+write) accesses
system.l2.demand_miss_rate::.cpu.inst        0.002181                       # miss rate for demand accesses
system.l2.demand_miss_rate::.cpu.data        0.033471                       # miss rate for demand accesses
system.l2.demand_miss_rate::total            0.007673                       # miss rate for demand accesses
system.l2.overall_miss_rate::.cpu.inst       0.002181                       # miss rate for overall accesses
system.l2.overall_miss_rate::.cpu.data       0.033471                       # miss rate for overall accesses
system.l2.overall_miss_rate::total           0.007673                       # miss rate for overall accesses
system.l2.demand_avg_miss_latency::.cpu.inst 97576.179428                       # average overall miss latency
system.l2.demand_avg_miss_latency::.cpu.data 99095.384615                       # average overall miss latency
system.l2.demand_avg_miss_latency::total 98739.398333                       # average overall miss latency
system.l2.overall_avg_miss_latency::.cpu.inst 97576.179428                       # average overall miss latency
system.l2.overall_avg_miss_latency::.cpu.data 99095.384615                       # average overall miss latency
system.l2.overall_avg_miss_latency::total 98739.398333                       # average overall miss latency
system.l2.blocked_cycles::no_mshrs                  0                       # number of cycles access was blocked
system.l2.blocked_cycles::no_targets                0                       # number of cycles access was blocked
system.l2.blocked::no_mshrs                         0                       # number of cycles access was blocked
system.l2.blocked::no_targets                       0                       # number of cycles access was blocked
system.l2.avg_blocked_cycles::no_mshrs            nan                       # average number of cycles each access was blocked
system.l2.avg_blocked_cycles::no_targets          nan                       # average number of cycles each access was blocked
system.l2.writebacks::.writebacks                  27                       # number of writebacks
system.l2.writebacks::total                        27                       # number of writebacks
system.l2.demand_mshr_hits::.cpu.inst               1                       # number of demand (read+write) MSHR hits
system.l2.demand_mshr_hits::.cpu.data               6                       # number of demand (read+write) MSHR hits
system.l2.demand_mshr_hits::total                   7                       # number of demand (read+write) MSHR hits
system.l2.overall_mshr_hits::.cpu.inst              1                       # number of overall MSHR hits
system.l2.overall_mshr_hits::.cpu.data              6                       # number of overall MSHR hits
system.l2.overall_mshr_hits::total                  7                       # number of overall MSHR hits
system.l2.demand_mshr_misses::.cpu.inst          1292                       # number of demand (read+write) MSHR misses
system.l2.demand_mshr_misses::.cpu.data          4219                       # number of demand (read+write) MSHR misses
system.l2.demand_mshr_misses::total              5511                       # number of demand (read+write) MSHR misses
system.l2.overall_mshr_misses::.cpu.inst         1292                       # number of overall MSHR misses
system.l2.overall_mshr_misses::.cpu.data         4219                       # number of overall MSHR misses
system.l2.overall_mshr_misses::total             5511                       # number of overall MSHR misses
system.l2.demand_mshr_miss_latency::.cpu.inst    100241000                       # number of demand (read+write) MSHR miss cycles
system.l2.demand_mshr_miss_latency::.cpu.data    333847000                       # number of demand (read+write) MSHR miss cycles
system.l2.demand_mshr_miss_latency::total    434088000                       # number of demand (read+write) MSHR miss cycles
system.l2.overall_mshr_miss_latency::.cpu.inst    100241000                       # number of overall MSHR miss cycles
system.l2.overall_mshr_miss_latency::.cpu.data    333847000                       # number of overall MSHR miss cycles
system.l2.overall_mshr_miss_latency::total    434088000                       # number of overall MSHR miss cycles
system.l2.demand_mshr_miss_rate::.cpu.inst     0.002179                       # mshr miss rate for demand accesses
system.l2.demand_mshr_miss_rate::.cpu.data     0.033424                       # mshr miss rate for demand accesses
system.l2.demand_mshr_miss_rate::total       0.007663                       # mshr miss rate for demand accesses
system.l2.overall_mshr_miss_rate::.cpu.inst     0.002179                       # mshr miss rate for overall accesses
system.l2.overall_mshr_miss_rate::.cpu.data     0.033424                       # mshr miss rate for overall accesses
system.l2.overall_mshr_miss_rate::total      0.007663                       # mshr miss rate for overall accesses
system.l2.demand_avg_mshr_miss_latency::.cpu.inst 77585.913313                       # average overall mshr miss latency
system.l2.demand_avg_mshr_miss_latency::.cpu.data 79129.414553                       # average overall mshr miss latency
system.l2.demand_avg_mshr_miss_latency::total 78767.555797                       # average overall mshr miss latency
system.l2.overall_avg_mshr_miss_latency::.cpu.inst 77585.913313                       # average overall mshr miss latency
system.l2.overall_avg_mshr_miss_latency::.cpu.data 79129.414553                       # average overall mshr miss latency
system.l2.overall_avg_mshr_miss_latency::total 78767.555797                       # average overall mshr miss latency
system.l2.replacements                            289                       # number of replacements
system.l2.WritebackDirty_hits::.writebacks       122610                       # number of WritebackDirty hits
system.l2.WritebackDirty_hits::total           122610                       # number of WritebackDirty hits
system.l2.WritebackDirty_accesses::.writebacks       122610                       # number of WritebackDirty accesses(hits+misses)
system.l2.WritebackDirty_accesses::total       122610                       # number of WritebackDirty accesses(hits+misses)
system.l2.WritebackClean_hits::.writebacks       565859                       # number of WritebackClean hits
system.l2.WritebackClean_hits::total           565859                       # number of WritebackClean hits
system.l2.WritebackClean_accesses::.writebacks       565859                       # number of WritebackClean accesses(hits+misses)
system.l2.WritebackClean_accesses::total       565859                       # number of WritebackClean accesses(hits+misses)
system.l2.CleanEvict_mshr_misses::.writebacks           62                       # number of CleanEvict MSHR misses
system.l2.CleanEvict_mshr_misses::total            62                       # number of CleanEvict MSHR misses
system.l2.CleanEvict_mshr_miss_rate::.writebacks          inf                       # mshr miss rate for CleanEvict accesses
system.l2.CleanEvict_mshr_miss_rate::total          inf                       # mshr miss rate for CleanEvict accesses
system.l2.ReadExReq_hits::.cpu.data             54316                       # number of ReadExReq hits
system.l2.ReadExReq_hits::total                 54316                       # number of ReadExReq hits
system.l2.ReadExReq_misses::.cpu.data            3673                       # number of ReadExReq misses
system.l2.ReadExReq_misses::total                3673                       # number of ReadExReq misses
system.l2.ReadExReq_miss_latency::.cpu.data    363433000                       # number of ReadExReq miss cycles
system.l2.ReadExReq_miss_latency::total     363433000                       # number of ReadExReq miss cycles
system.l2.ReadExReq_accesses::.cpu.data         57989                       # number of ReadExReq accesses(hits+misses)
system.l2.ReadExReq_accesses::total             57989                       # number of ReadExReq accesses(hits+misses)
system.l2.ReadExReq_miss_rate::.cpu.data     0.063340                       # miss rate for ReadExReq accesses
system.l2.ReadExReq_miss_rate::total         0.063340                       # miss rate for ReadExReq accesses
system.l2.ReadExReq_avg_miss_latency::.cpu.data 98947.182140                       # average ReadExReq miss latency
system.l2.ReadExReq_avg_miss_latency::total 98947.182140                       # average ReadExReq miss latency
system.l2.ReadExReq_mshr_misses::.cpu.data         3673                       # number of ReadExReq MSHR misses
system.l2.ReadExReq_mshr_misses::total           3673                       # number of ReadExReq MSHR misses
system.l2.ReadExReq_mshr_miss_latency::.cpu.data    289973000                       # number of ReadExReq MSHR miss cycles
system.l2.ReadExReq_mshr_miss_latency::total    289973000                       # number of ReadExReq MSHR miss cycles
system.l2.ReadExReq_mshr_miss_rate::.cpu.data     0.063340                       # mshr miss rate for ReadExReq accesses
system.l2.ReadExReq_mshr_miss_rate::total     0.063340                       # mshr miss rate for ReadExReq accesses
system.l2.ReadExReq_avg_mshr_miss_latency::.cpu.data 78947.182140                       # average ReadExReq mshr miss latency
system.l2.ReadExReq_avg_mshr_miss_latency::total 78947.182140                       # average ReadExReq mshr miss latency
system.l2.ReadCleanReq_hits::.cpu.inst         591636                       # number of ReadCleanReq hits
system.l2.ReadCleanReq_hits::total             591636                       # number of ReadCleanReq hits
system.l2.ReadCleanReq_misses::.cpu.inst         1293                       # number of ReadCleanReq misses
system.l2.ReadCleanReq_misses::total             1293                       # number of ReadCleanReq misses
system.l2.ReadCleanReq_miss_latency::.cpu.inst    126166000                       # number of ReadCleanReq miss cycles
system.l2.ReadCleanReq_miss_latency::total    126166000                       # number of ReadCleanReq miss cycles
system.l2.ReadCleanReq_accesses::.cpu.inst       592929                       # number of ReadCleanReq accesses(hits+misses)
system.l2.ReadCleanReq_accesses::total         592929                       # number of ReadCleanReq accesses(hits+misses)
system.l2.ReadCleanReq_miss_rate::.cpu.inst     0.002181                       # miss rate for ReadCleanReq accesses
system.l2.ReadCleanReq_miss_rate::total      0.002181                       # miss rate for ReadCleanReq accesses
system.l2.ReadCleanReq_avg_miss_latency::.cpu.inst 97576.179428                       # average ReadCleanReq miss latency
system.l2.ReadCleanReq_avg_miss_latency::total 97576.179428                       # average ReadCleanReq miss latency
system.l2.ReadCleanReq_mshr_hits::.cpu.inst            1                       # number of ReadCleanReq MSHR hits
system.l2.ReadCleanReq_mshr_hits::total             1                       # number of ReadCleanReq MSHR hits
system.l2.ReadCleanReq_mshr_misses::.cpu.inst         1292                       # number of ReadCleanReq MSHR misses
system.l2.ReadCleanReq_mshr_misses::total         1292                       # number of ReadCleanReq MSHR misses
system.l2.ReadCleanReq_mshr_miss_latency::.cpu.inst    100241000                       # number of ReadCleanReq MSHR miss cycles
system.l2.ReadCleanReq_mshr_miss_latency::total    100241000                       # number of ReadCleanReq MSHR miss cycles
system.l2.ReadCleanReq_mshr_miss_rate::.cpu.inst     0.002179                       # mshr miss rate for ReadCleanReq accesses
system.l2.ReadCleanReq_mshr_miss_rate::total     0.002179                       # mshr miss rate for ReadCleanReq accesses
system.l2.ReadCleanReq_avg_mshr_miss_latency::.cpu.inst 77585.913313                       # average ReadCleanReq mshr miss latency
system.l2.ReadCleanReq_avg_mshr_miss_latency::total 77585.913313                       # average ReadCleanReq mshr miss latency
system.l2.ReadSharedReq_hits::.cpu.data         67686                       # number of ReadSharedReq hits
system.l2.ReadSharedReq_hits::total             67686                       # number of ReadSharedReq hits
system.l2.ReadSharedReq_misses::.cpu.data          552                       # number of ReadSharedReq misses
system.l2.ReadSharedReq_misses::total             552                       # number of ReadSharedReq misses
system.l2.ReadSharedReq_miss_latency::.cpu.data     55245000                       # number of ReadSharedReq miss cycles
system.l2.ReadSharedReq_miss_latency::total     55245000                       # number of ReadSharedReq miss cycles
system.l2.ReadSharedReq_accesses::.cpu.data        68238                       # number of ReadSharedReq accesses(hits+misses)
system.l2.ReadSharedReq_accesses::total         68238                       # number of ReadSharedReq accesses(hits+misses)
system.l2.ReadSharedReq_miss_rate::.cpu.data     0.008089                       # miss rate for ReadSharedReq accesses
system.l2.ReadSharedReq_miss_rate::total     0.008089                       # miss rate for ReadSharedReq accesses
system.l2.ReadSharedReq_avg_miss_latency::.cpu.data 100081.521739                       # average ReadSharedReq miss latency
system.l2.ReadSharedReq_avg_miss_latency::total 100081.521739                       # average ReadSharedReq miss latency
system.l2.ReadSharedReq_mshr_hits::.cpu.data            6                       # number of ReadSharedReq MSHR hits
system.l2.ReadSharedReq_mshr_hits::total            6                       # number of ReadSharedReq MSHR hits
system.l2.ReadSharedReq_mshr_misses::.cpu.data          546                       # number of ReadSharedReq MSHR misses
system.l2.ReadSharedReq_mshr_misses::total          546                       # number of ReadSharedReq MSHR misses
system.l2.ReadSharedReq_mshr_miss_latency::.cpu.data     43874000                       # number of ReadSharedReq MSHR miss cycles
system.l2.ReadSharedReq_mshr_miss_latency::total     43874000                       # number of ReadSharedReq MSHR miss cycles
system.l2.ReadSharedReq_mshr_miss_rate::.cpu.data     0.008001                       # mshr miss rate for ReadSharedReq accesses
system.l2.ReadSharedReq_mshr_miss_rate::total     0.008001                       # mshr miss rate for ReadSharedReq accesses
system.l2.ReadSharedReq_avg_mshr_miss_latency::.cpu.data 80355.311355                       # average ReadSharedReq mshr miss latency
system.l2.ReadSharedReq_avg_mshr_miss_latency::total 80355.311355                       # average ReadSharedReq mshr miss latency
system.l2.power_state.pwrStateResidencyTicks::UNDEFINED 133595644000                       # Cumulative time (in ticks) in various power states
system.l2.tags.tagsinuse                  5048.626251                       # Cycle average of tags in use
system.l2.tags.total_refs                     1409660                       # Total number of references to valid blocks.
system.l2.tags.sampled_refs                      5533                       # Sample count of references to valid blocks.
system.l2.tags.avg_refs                    254.773179                       # Average number of references to valid blocks.
system.l2.tags.warmup_cycle                     87000                       # Cycle when the warmup percentage was hit.
system.l2.tags.occ_blocks::.writebacks      18.520945                       # Average occupied blocks per requestor
system.l2.tags.occ_blocks::.cpu.inst      1138.565687                       # Average occupied blocks per requestor
system.l2.tags.occ_blocks::.cpu.data      3891.539619                       # Average occupied blocks per requestor
system.l2.tags.occ_percent::.writebacks      0.002261                       # Average percentage of cache occupancy
system.l2.tags.occ_percent::.cpu.inst        0.138985                       # Average percentage of cache occupancy
system.l2.tags.occ_percent::.cpu.data        0.475041                       # Average percentage of cache occupancy
system.l2.tags.occ_percent::total            0.616287                       # Average percentage of cache occupancy
system.l2.tags.occ_task_id_blocks::1024          5244                       # Occupied blocks per task id
system.l2.tags.age_task_id_blocks_1024::3            6                       # Occupied blocks per task id
system.l2.tags.age_task_id_blocks_1024::4         5238                       # Occupied blocks per task id
system.l2.tags.occ_task_id_percent::1024     0.640137                       # Percentage of cache occupancy per task id
system.l2.tags.tag_accesses                   2824991                       # Number of tag accesses
system.l2.tags.data_accesses                  2824991                       # Number of data accesses
system.l2.tags.power_state.pwrStateResidencyTicks::UNDEFINED 133595644000                       # Cumulative time (in ticks) in various power states
system.mem_ctrls.avgPriority_.writebacks::samples        19.00                       # Average QoS priority value for accepted requests
system.mem_ctrls.avgPriority_.cpu.inst::samples      1292.00                       # Average QoS priority value for accepted requests
system.mem_ctrls.avgPriority_.cpu.data::samples      4199.00                       # Average QoS priority value for accepted requests
system.mem_ctrls.priorityMinLatency      0.000000018750                       # per QoS priority minimum request to response latency (s)
system.mem_ctrls.priorityMaxLatency      0.000000579000                       # per QoS priority maximum request to response latency (s)
system.mem_ctrls.numReadWriteTurnArounds            0                       # Number of turnarounds from READ to WRITE
system.mem_ctrls.numWriteReadTurnArounds            0                       # Number of turnarounds from WRITE to READ
system.mem_ctrls.numStayReadState               45317                       # Number of times bus staying in READ state
system.mem_ctrls.numStayWriteState                  0                       # Number of times bus staying in WRITE state
system.mem_ctrls.readReqs                        5511                       # Number of read requests accepted
system.mem_ctrls.writeReqs                         27                       # Number of write requests accepted
system.mem_ctrls.readBursts                      5511                       # Number of controller read bursts, including those serviced by the write queue
system.mem_ctrls.writeBursts                       27                       # Number of controller write bursts, including those merged in the write queue
system.mem_ctrls.servicedByWrQ                     20                       # Number of controller read bursts serviced by the write queue
system.mem_ctrls.mergedWrBursts                     8                       # Number of controller write bursts merged with an existing one
system.mem_ctrls.neitherReadNorWriteReqs            0                       # Number of requests that are neither read nor write
system.mem_ctrls.avgRdQLen                       1.00                       # Average read queue length when enqueuing
system.mem_ctrls.avgWrQLen                      16.47                       # Average write queue length when enqueuing
system.mem_ctrls.numRdRetry                         0                       # Number of times read queue was full causing retry
system.mem_ctrls.numWrRetry                         0                       # Number of times write queue was full causing retry
[...]
system.mem_ctrls.dram.bw_write::.writebacks        12935                       # Write bandwidth from this memory (bytes/s)
system.mem_ctrls.dram.bw_write::total           12935                       # Write bandwidth from this memory (bytes/s)
system.mem_ctrls.dram.bw_total::.writebacks        12935                       # Total bandwidth to/from this memory (bytes/s)
system.mem_ctrls.dram.bw_total::.cpu.inst       618942                       # Total bandwidth to/from this memory (bytes/s)
system.mem_ctrls.dram.bw_total::.cpu.data      2021144                       # Total bandwidth to/from this memory (bytes/s)
system.mem_ctrls.dram.bw_total::total         2653021                       # Total bandwidth to/from this memory (bytes/s)
system.mem_ctrls.dram.readBursts                 5491                       # Number of DRAM read bursts
system.mem_ctrls.dram.writeBursts                   0                       # Number of DRAM write bursts
system.mem_ctrls.dram.perBankRdBursts::0          247                       # Per bank write bursts
system.mem_ctrls.dram.perBankRdBursts::1          270                       # Per bank write bursts
system.mem_ctrls.dram.perBankRdBursts::2          241                       # Per bank write bursts
system.mem_ctrls.dram.perBankRdBursts::3          402                       # Per bank write bursts
system.mem_ctrls.dram.perBankRdBursts::4          413                       # Per bank write bursts
system.mem_ctrls.dram.perBankRdBursts::5          375                       # Per bank write bursts
system.mem_ctrls.dram.perBankRdBursts::6          376                       # Per bank write bursts
system.mem_ctrls.dram.perBankRdBursts::7          399                       # Per bank write bursts
system.mem_ctrls.dram.perBankRdBursts::8          358                       # Per bank write bursts
system.mem_ctrls.dram.perBankRdBursts::9          303                       # Per bank write bursts
system.mem_ctrls.dram.perBankRdBursts::10          425                       # Per bank write bursts
system.mem_ctrls.dram.perBankRdBursts::11          287                       # Per bank write bursts
system.mem_ctrls.dram.perBankRdBursts::12          311                       # Per bank write bursts
system.mem_ctrls.dram.perBankRdBursts::13          339                       # Per bank write bursts
system.mem_ctrls.dram.perBankRdBursts::14          409                       # Per bank write bursts
system.mem_ctrls.dram.perBankRdBursts::15          336                       # Per bank write bursts
system.mem_ctrls.dram.perBankWrBursts::0            0                       # Per bank write bursts
system.mem_ctrls.dram.perBankWrBursts::1            0                       # Per bank write bursts
system.mem_ctrls.dram.perBankWrBursts::2            0                       # Per bank write bursts
system.mem_ctrls.dram.perBankWrBursts::3            0                       # Per bank write bursts
system.mem_ctrls.dram.perBankWrBursts::4            0                       # Per bank write bursts
system.mem_ctrls.dram.perBankWrBursts::5            0                       # Per bank write bursts
system.mem_ctrls.dram.perBankWrBursts::6            0                       # Per bank write bursts
system.mem_ctrls.dram.perBankWrBursts::7            0                       # Per bank write bursts
system.mem_ctrls.dram.perBankWrBursts::8            0                       # Per bank write bursts
system.mem_ctrls.dram.perBankWrBursts::9            0                       # Per bank write bursts
system.mem_ctrls.dram.perBankWrBursts::10            0                       # Per bank write bursts
system.mem_ctrls.dram.perBankWrBursts::11            0                       # Per bank write bursts
system.mem_ctrls.dram.perBankWrBursts::12            0                       # Per bank write bursts
system.mem_ctrls.dram.perBankWrBursts::13            0                       # Per bank write bursts
system.mem_ctrls.dram.perBankWrBursts::14            0                       # Per bank write bursts
system.mem_ctrls.dram.perBankWrBursts::15            0                       # Per bank write bursts
system.mem_ctrls.dram.totQLat                48477250                       # Total ticks spent queuing
system.mem_ctrls.dram.totBusLat              27455000                       # Total ticks spent in databus transfers
system.mem_ctrls.dram.totMemAccLat          151433500                       # Total ticks spent from burst creation until serviced by the DRAM
system.mem_ctrls.dram.avgQLat                 8828.49                       # Average queueing delay per DRAM burst
system.mem_ctrls.dram.avgBusLat               5000.00                       # Average bus latency per DRAM burst
system.mem_ctrls.dram.avgMemAccLat           27578.49                       # Average memory access latency per DRAM burst
system.mem_ctrls.dram.readRowHits                3935                       # Number of row buffer hits during reads
system.mem_ctrls.dram.writeRowHits                  0                       # Number of row buffer hits during writes
system.mem_ctrls.dram.readRowHitRate            71.66                       # Row buffer hit rate for reads
system.mem_ctrls.dram.writeRowHitRate             nan                       # Row buffer hit rate for writes
system.mem_ctrls.dram.bytesPerActivate::samples         1556                       # Bytes accessed per row activation
system.mem_ctrls.dram.bytesPerActivate::mean   225.850900                       # Bytes accessed per row activation
system.mem_ctrls.dram.bytesPerActivate::gmean   147.672017                       # Bytes accessed per row activation
system.mem_ctrls.dram.bytesPerActivate::stdev   259.706663                       # Bytes accessed per row activation
system.mem_ctrls.dram.bytesPerActivate::0-127          565     36.31%     36.31% # Bytes accessed per row activation
system.mem_ctrls.dram.bytesPerActivate::128-255          587     37.72%     74.04% # Bytes accessed per row activation
system.mem_ctrls.dram.bytesPerActivate::256-383          173     11.12%     85.15% # Bytes accessed per row activation
system.mem_ctrls.dram.bytesPerActivate::384-511           42      2.70%     87.85% # Bytes accessed per row activation
system.mem_ctrls.dram.bytesPerActivate::512-639           31      1.99%     89.85% # Bytes accessed per row activation
system.mem_ctrls.dram.bytesPerActivate::640-767           30      1.93%     91.77% # Bytes accessed per row activation
system.mem_ctrls.dram.bytesPerActivate::768-895           12      0.77%     92.54% # Bytes accessed per row activation
system.mem_ctrls.dram.bytesPerActivate::896-1023           15      0.96%     93.51% # Bytes accessed per row activation
system.mem_ctrls.dram.bytesPerActivate::1024-1151          101      6.49%    100.00% # Bytes accessed per row activation
system.mem_ctrls.dram.bytesPerActivate::total         1556                       # Bytes accessed per row activation
system.mem_ctrls.dram.bytesRead                351424                       # Total number of bytes read from DRAM
system.mem_ctrls.dram.bytesWritten                  0                       # Total number of bytes written to DRAM
system.mem_ctrls.dram.avgRdBW                2.630505                       # Average DRAM read bandwidth in MiBytes/s
system.mem_ctrls.dram.avgWrBW                       0                       # Average DRAM write bandwidth in MiBytes/s
system.mem_ctrls.dram.peakBW                 12800.00                       # Theoretical peak bandwidth in MiByte/s
system.mem_ctrls.dram.busUtil                    0.02                       # Data bus utilization in percentage
system.mem_ctrls.dram.busUtilRead                0.02                       # Data bus utilization in percentage for reads
system.mem_ctrls.dram.busUtilWrite               0.00                       # Data bus utilization in percentage for writes
system.mem_ctrls.dram.pageHitRate               71.66                       # Row buffer hit rate, read and write combined
system.mem_ctrls.dram.power_state.pwrStateResidencyTicks::UNDEFINED 133595644000                       # Cumulative time (in ticks) in various power states
system.mem_ctrls.dram.rank0.actEnergy         5676300                       # Energy for activate commands per rank (pJ)
system.mem_ctrls.dram.rank0.preEnergy         3017025                       # Energy for precharge commands per rank (pJ)
system.mem_ctrls.dram.rank0.readEnergy       19442220                       # Energy for read commands per rank (pJ)
system.mem_ctrls.dram.rank0.writeEnergy             0                       # Energy for write commands per rank (pJ)
system.mem_ctrls.dram.rank0.refreshEnergy 10545378480.000002                       # Energy for refresh commands per rank (pJ)
system.mem_ctrls.dram.rank0.actBackEnergy   3032679870                       # Energy for active background per rank (pJ)
system.mem_ctrls.dram.rank0.preBackEnergy  48746892000                       # Energy for precharge background per rank (pJ)
system.mem_ctrls.dram.rank0.actPowerDownEnergy            0                       # Energy for active power-down per rank (pJ)
system.mem_ctrls.dram.rank0.prePowerDownEnergy            0                       # Energy for precharge power-down per rank (pJ)
system.mem_ctrls.dram.rank0.selfRefreshEnergy            0                       # Energy for self refresh per rank (pJ)
system.mem_ctrls.dram.rank0.totalEnergy   62353085895                       # Total energy per rank (pJ)
system.mem_ctrls.dram.rank0.averagePower   466.729932                       # Core power per rank (mW)
system.mem_ctrls.dram.rank0.totalIdleTime            0                       # Total Idle time Per DRAM Rank
system.mem_ctrls.dram.rank0.pwrStateTime::IDLE 126702392000                       # Time in different power states
system.mem_ctrls.dram.rank0.pwrStateTime::REF   4460820000                       # Time in different power states
system.mem_ctrls.dram.rank0.pwrStateTime::SREF            0                       # Time in different power states
system.mem_ctrls.dram.rank0.pwrStateTime::PRE_PDN            0                       # Time in different power states
system.mem_ctrls.dram.rank0.pwrStateTime::ACT   2432432000                       # Time in different power states
system.mem_ctrls.dram.rank0.pwrStateTime::ACT_PDN            0                       # Time in different power states
system.mem_ctrls.dram.rank1.actEnergy         5433540                       # Energy for activate commands per rank (pJ)
system.mem_ctrls.dram.rank1.preEnergy         2887995                       # Energy for precharge commands per rank (pJ)
system.mem_ctrls.dram.rank1.readEnergy       19763520                       # Energy for read commands per rank (pJ)
system.mem_ctrls.dram.rank1.writeEnergy             0                       # Energy for write commands per rank (pJ)
system.mem_ctrls.dram.rank1.refreshEnergy 10545378480.000002                       # Energy for refresh commands per rank (pJ)
system.mem_ctrls.dram.rank1.actBackEnergy   2967458760                       # Energy for active background per rank (pJ)
system.mem_ctrls.dram.rank1.preBackEnergy  48801815040                       # Energy for precharge background per rank (pJ)
system.mem_ctrls.dram.rank1.actPowerDownEnergy            0                       # Energy for active power-down per rank (pJ)
system.mem_ctrls.dram.rank1.prePowerDownEnergy            0                       # Energy for precharge power-down per rank (pJ)
system.mem_ctrls.dram.rank1.selfRefreshEnergy            0                       # Energy for self refresh per rank (pJ)
system.mem_ctrls.dram.rank1.totalEnergy   62342737335                       # Total energy per rank (pJ)
system.mem_ctrls.dram.rank1.averagePower   466.652471                       # Core power per rank (mW)
system.mem_ctrls.dram.rank1.totalIdleTime            0                       # Total Idle time Per DRAM Rank
system.mem_ctrls.dram.rank1.pwrStateTime::IDLE 126845766750                       # Time in different power states
system.mem_ctrls.dram.rank1.pwrStateTime::REF   4460820000                       # Time in different power states
system.mem_ctrls.dram.rank1.pwrStateTime::SREF            0                       # Time in different power states
system.mem_ctrls.dram.rank1.pwrStateTime::PRE_PDN            0                       # Time in different power states
system.mem_ctrls.dram.rank1.pwrStateTime::ACT   2289057250                       # Time in different power states
system.mem_ctrls.dram.rank1.pwrStateTime::ACT_PDN            0                       # Time in different power states
system.mem_ctrls.power_state.pwrStateResidencyTicks::UNDEFINED 133595644000                       # Cumulative time (in ticks) in various power states
system.membus.trans_dist::ReadResp               1838                       # Transaction distribution
system.membus.trans_dist::WritebackDirty           27                       # Transaction distribution
system.membus.trans_dist::CleanEvict              230                       # Transaction distribution
system.membus.trans_dist::ReadExReq              3673                       # Transaction distribution
system.membus.trans_dist::ReadExResp             3673                       # Transaction distribution
system.membus.trans_dist::ReadSharedReq          1838                       # Transaction distribution
system.membus.pkt_count_system.l2.mem_side_port::system.mem_ctrls.port        11279                       # Packet count per connected requestor and responder (bytes)
system.membus.pkt_count::total                  11279                       # Packet count per connected requestor and responder (bytes)
system.membus.pkt_size_system.l2.mem_side_port::system.mem_ctrls.port       354432                       # Cumulative packet size per connected requestor and responder (bytes)
system.membus.pkt_size::total                  354432                       # Cumulative packet size per connected requestor and responder (bytes)
system.membus.snoops                                0                       # Total snoops (count)
system.membus.snoopTraffic                          0                       # Total snoop traffic (bytes)
system.membus.snoop_fanout::samples              5511                       # Request fanout histogram
system.membus.snoop_fanout::mean                    0                       # Request fanout histogram
system.membus.snoop_fanout::stdev                   0                       # Request fanout histogram
system.membus.snoop_fanout::underflows              0      0.00%      0.00% # Request fanout histogram
system.membus.snoop_fanout::0                    5511    100.00%    100.00% # Request fanout histogram
system.membus.snoop_fanout::1                       0      0.00%    100.00% # Request fanout histogram
system.membus.snoop_fanout::overflows               0      0.00%    100.00% # Request fanout histogram
system.membus.snoop_fanout::min_value               0                       # Request fanout histogram
system.membus.snoop_fanout::max_value               0                       # Request fanout histogram
system.membus.snoop_fanout::total                5511                       # Request fanout histogram
system.membus.power_state.pwrStateResidencyTicks::UNDEFINED 133595644000                       # Cumulative time (in ticks) in various power states
system.membus.reqLayer0.occupancy             5876000                       # Layer occupancy (ticks)
system.membus.reqLayer0.utilization               0.0                       # Layer utilization (%)
system.membus.respLayer1.occupancy           29299750                       # Layer occupancy (ticks)
system.membus.respLayer1.utilization              0.0                       # Layer utilization (%)
system.tol2bus.trans_dist::ReadResp            661167                       # Transaction distribution
system.tol2bus.trans_dist::WritebackDirty       122637                       # Transaction distribution
system.tol2bus.trans_dist::WritebackClean       592801                       # Transaction distribution
system.tol2bus.trans_dist::CleanEvict            2855                       # Transaction distribution
system.tol2bus.trans_dist::ReadExReq            57989                       # Transaction distribution
system.tol2bus.trans_dist::ReadExResp           57989                       # Transaction distribution
system.tol2bus.trans_dist::ReadCleanReq        592929                       # Transaction distribution
system.tol2bus.trans_dist::ReadSharedReq        68238                       # Transaction distribution
system.tol2bus.pkt_count_system.cpu.icache.mem_side_port::system.l2.cpu_side_port      1778659                       # Packet count per connected requestor and responder (bytes)
system.tol2bus.pkt_count_system.cpu.dcache.mem_side_port::system.l2.cpu_side_port       377657                       # Packet count per connected requestor and responder (bytes)
system.tol2bus.pkt_count::total               2156316                       # Packet count per connected requestor and responder (bytes)
system.tol2bus.pkt_size_system.cpu.icache.mem_side_port::system.l2.cpu_side_port     75886720                       # Cumulative packet size per connected requestor and responder (bytes)
system.tol2bus.pkt_size_system.cpu.dcache.mem_side_port::system.l2.cpu_side_port     15925568                       # Cumulative packet size per connected requestor and responder (bytes)
system.tol2bus.pkt_size::total               91812288                       # Cumulative packet size per connected requestor and responder (bytes)
system.tol2bus.snoops                             289                       # Total snoops (count)
system.tol2bus.snoopTraffic                      1728                       # Total snoop traffic (bytes)
system.tol2bus.snoop_fanout::samples           719445                       # Request fanout histogram
system.tol2bus.snoop_fanout::mean            0.038266                       # Request fanout histogram
system.tol2bus.snoop_fanout::stdev           0.191851                       # Request fanout histogram
system.tol2bus.snoop_fanout::underflows             0      0.00%      0.00% # Request fanout histogram
system.tol2bus.snoop_fanout::0                 691917     96.17%     96.17% # Request fanout histogram
system.tol2bus.snoop_fanout::1                  27526      3.83%    100.00% # Request fanout histogram
system.tol2bus.snoop_fanout::2                      2      0.00%    100.00% # Request fanout histogram
system.tol2bus.snoop_fanout::overflows              0      0.00%    100.00% # Request fanout histogram
system.tol2bus.snoop_fanout::min_value              0                       # Request fanout histogram
system.tol2bus.snoop_fanout::max_value              2                       # Request fanout histogram
system.tol2bus.snoop_fanout::total             719445                       # Request fanout histogram
system.tol2bus.power_state.pwrStateResidencyTicks::UNDEFINED 133595644000                       # Cumulative time (in ticks) in various power states
system.tol2bus.reqLayer0.occupancy         2867982000                       # Layer occupancy (ticks)
system.tol2bus.reqLayer0.utilization              2.1                       # Layer utilization (%)
system.tol2bus.respLayer0.occupancy        1778789997                       # Layer occupancy (ticks)
system.tol2bus.respLayer0.utilization             1.3                       # Layer utilization (%)
system.tol2bus.respLayer1.occupancy         378688992                       # Layer occupancy (ticks)
system.tol2bus.respLayer1.utilization             0.3                       # Layer utilization (%)
system.voltage_domain.voltage                       1                       # Voltage in Volts

---------- End Simulation Statistics   ----------
