
---------- Begin Simulation Statistics ----------
final_tick                               120545756000                       # Number of ticks from beginning of simulation (restored from checkpoints and never reset)
host_inst_rate                                 421311                       # Simulator instruction rate (inst/s)
host_mem_usage                                 665552                       # Number of bytes of host memory used
host_op_rate                                   425957                       # Simulator op (including micro ops) rate (op/s)
host_seconds                                   237.35                       # Real time elapsed on the host
host_tick_rate                              507872118                       # Simulator tick rate (ticks/s)
sim_freq                                 1000000000000                       # Frequency of simulated ticks
sim_insts                                   100000000                       # Number of instructions simulated
sim_ops                                     101102842                       # Number of ops (including micro ops) simulated
sim_seconds                                  0.120546                       # Number of seconds simulated
sim_ticks                                120545756000                       # Number of ticks simulated
system.cpu.committedInsts                   100000000                       # Number of instructions committed
system.cpu.committedOps                     101102842                       # Number of ops (including micro ops) committed
system.cpu.cpi                               1.205458                       # CPI: cycles per instruction
system.cpu.discardedOps                        973276                       # Number of ops (including micro ops) which were discarded before commit
system.cpu.idleCycles                         4460285                       # Total number of cycles that the object has spent stopped
system.cpu.ipc                               0.829561                       # IPC: instructions per cycle
system.cpu.numCycles                        120545756                       # number of cpu cycles simulated
system.cpu.numFetchSuspends                         0                       # Number of times Execute suspended instruction fetching
system.cpu.numWorkItemsCompleted                    0                       # number of work items this cpu completed
system.cpu.numWorkItemsStarted                      0                       # number of work items this cpu started
system.cpu.op_class_0::No_OpClass                   0      0.00%      0.00% # Class of committed instruction
system.cpu.op_class_0::IntAlu                55116018     54.51%     54.51% # Class of committed instruction
system.cpu.op_class_0::IntMult                 167845      0.17%     54.68% # Class of committed instruction
system.cpu.op_class_0::IntDiv                       0      0.00%     54.68% # Class of committed instruction
system.cpu.op_class_0::FloatAdd                     0      0.00%     54.68% # Class of committed instruction
system.cpu.op_class_0::FloatCmp                     0      0.00%     54.68% # Class of committed instruction
system.cpu.op_class_0::FloatCvt                     0      0.00%     54.68% # Class of committed instruction
system.cpu.op_class_0::FloatMult                    0      0.00%     54.68% # Class of committed instruction
system.cpu.op_class_0::FloatMultAcc                 0      0.00%     54.68% # Class of committed instruction
system.cpu.op_class_0::FloatDiv                     0      0.00%     54.68% # Class of committed instruction
system.cpu.op_class_0::FloatMisc                    0      0.00%     54.68% # Class of committed instruction
system.cpu.op_class_0::FloatSqrt                    0      0.00%     54.68% # Class of committed instruction
system.cpu.op_class_0::SimdAdd                    376      0.00%     54.68% # Class of committed instruction
system.cpu.op_class_0::SimdAddAcc                   0      0.00%     54.68% # Class of committed instruction
system.cpu.op_class_0::SimdAlu                    466      0.00%     54.68% # Class of committed instruction
system.cpu.op_class_0::SimdCmp                    378      0.00%     54.68% # Class of committed instruction
system.cpu.op_class_0::SimdCvt                      0      0.00%     54.68% # Class of committed instruction
system.cpu.op_class_0::SimdMisc                    53      0.00%     54.68% # Class of committed instruction
system.cpu.op_class_0::SimdMult                     0      0.00%     54.68% # Class of committed instruction
system.cpu.op_class_0::SimdMultAcc                  0      0.00%     54.68% # Class of committed instruction
system.cpu.op_class_0::SimdShift                    0      0.00%     54.68% # Class of committed instruction
system.cpu.op_class_0::SimdShiftAcc                 0      0.00%     54.68% # Class of committed instruction
system.cpu.op_class_0::SimdDiv                      0      0.00%     54.68% # Class of committed instruction
system.cpu.op_class_0::SimdSqrt                     0      0.00%     54.68% # Class of committed instruction
system.cpu.op_class_0::SimdFloatAdd            267609      0.26%     54.95% # Class of committed instruction
system.cpu.op_class_0::SimdFloatAlu                 0      0.00%     54.95% # Class of committed instruction
system.cpu.op_class_0::SimdFloatCmp            259630      0.26%     55.20% # Class of committed instruction
system.cpu.op_class_0::SimdFloatCvt            161456      0.16%     55.36% # Class of committed instruction
system.cpu.op_class_0::SimdFloatDiv             54308      0.05%     55.42% # Class of committed instruction
system.cpu.op_class_0::SimdFloatMisc           483616      0.48%     55.90% # Class of committed instruction
system.cpu.op_class_0::SimdFloatMult            33524      0.03%     55.93% # Class of committed instruction
system.cpu.op_class_0::SimdFloatMultAcc         11115      0.01%     55.94% # Class of committed instruction
system.cpu.op_class_0::SimdFloatSqrt                0      0.00%     55.94% # Class of committed instruction
system.cpu.op_class_0::SimdReduceAdd                0      0.00%     55.94% # Class of committed instruction
system.cpu.op_class_0::SimdReduceAlu                0      0.00%     55.94% # Class of committed instruction
system.cpu.op_class_0::SimdReduceCmp                0      0.00%     55.94% # Class of committed instruction
system.cpu.op_class_0::SimdFloatReduceAdd            0      0.00%     55.94% # Class of committed instruction
system.cpu.op_class_0::SimdFloatReduceCmp            0      0.00%     55.94% # Class of committed instruction
system.cpu.op_class_0::SimdAes                      0      0.00%     55.94% # Class of committed instruction
system.cpu.op_class_0::SimdAesMix                   0      0.00%     55.94% # Class of committed instruction
system.cpu.op_class_0::SimdSha1Hash                 0      0.00%     55.94% # Class of committed instruction
system.cpu.op_class_0::SimdSha1Hash2                0      0.00%     55.94% # Class of committed instruction
system.cpu.op_class_0::SimdSha256Hash               0      0.00%     55.94% # Class of committed instruction
system.cpu.op_class_0::SimdSha256Hash2              0      0.00%     55.94% # Class of committed instruction
system.cpu.op_class_0::SimdShaSigma2                0      0.00%     55.94% # Class of committed instruction
system.cpu.op_class_0::SimdShaSigma3                0      0.00%     55.94% # Class of committed instruction
system.cpu.op_class_0::SimdPredAlu                  0      0.00%     55.94% # Class of committed instruction
system.cpu.op_class_0::MemRead               38167367     37.75%     93.69% # Class of committed instruction
system.cpu.op_class_0::MemWrite               6379081      6.31%    100.00% # Class of committed instruction
system.cpu.op_class_0::FloatMemRead                 0      0.00%    100.00% # Class of committed instruction
system.cpu.op_class_0::FloatMemWrite                0      0.00%    100.00% # Class of committed instruction
system.cpu.op_class_0::IprAccess                    0      0.00%    100.00% # Class of committed instruction
system.cpu.op_class_0::InstPrefetch                 0      0.00%    100.00% # Class of committed instruction
system.cpu.op_class_0::total                101102842                       # Class of committed instruction
system.cpu.tickCycles                       116085471                       # Number of cycles that the object actually ticked
system.cpu.workload.numSyscalls                    32                       # Number of system calls
system.membus.snoop_filter.hit_multi_requests            0                       # Number of requests hitting in the snoop filter with multiple (>1) holders of the requested data.
system.membus.snoop_filter.hit_multi_snoops            0                       # Number of snoops hitting in the snoop filter with multiple (>1) holders of the requested data.
system.membus.snoop_filter.hit_single_requests          109                       # Number of requests hitting in the snoop filter with a single holder of the requested data.
system.membus.snoop_filter.hit_single_snoops            0                       # Number of snoops hitting in the snoop filter with a single holder of the requested data.
system.membus.snoop_filter.tot_requests          5607                       # Total number of requests made to the snoop filter.
system.membus.snoop_filter.tot_snoops               0                       # Total number of snoops made to the snoop filter.
system.tol2bus.snoop_filter.hit_multi_requests         1635                       # Number of requests hitting in the snoop filter with multiple (>1) holders of the requested data.
system.tol2bus.snoop_filter.hit_multi_snoops            4                       # Number of snoops hitting in the snoop filter with multiple (>1) holders of the requested data.
system.tol2bus.snoop_filter.hit_single_requests       131407                       # Number of requests hitting in the snoop filter with a single holder of the requested data.
system.tol2bus.snoop_filter.hit_single_snoops          206                       # Number of snoops hitting in the snoop filter with a single holder of the requested data.
system.tol2bus.snoop_filter.tot_requests       264639                       # Total number of requests made to the snoop filter.
system.tol2bus.snoop_filter.tot_snoops            210                       # Total number of snoops made to the snoop filter.
system.clk_domain.clock                          1000                       # Clock period in ticks
system.cpu.branchPred.lookups                 6500948                       # Number of BP lookups
system.cpu.branchPred.condPredicted           5093280                       # Number of conditional branches predicted
system.cpu.branchPred.condIncorrect            349133                       # Number of conditional branches incorrect
system.cpu.branchPred.BTBLookups              4083910                       # Number of BTB lookups
system.cpu.branchPred.BTBHits                 4076597                       # Number of BTB hits
system.cpu.branchPred.BTBHitPct             99.820931                       # BTB Hit Percentage
system.cpu.branchPred.RASUsed                  312487                       # Number of times the RAS was used to get a target.
system.cpu.branchPred.RASIncorrect                  4                       # Number of incorrect RAS predictions.
system.cpu.branchPred.indirectLookups          675679                       # Number of indirect predictor lookups.
system.cpu.branchPred.indirectHits             102891                       # Number of indirect target hits.
system.cpu.branchPred.indirectMisses           572788                       # Number of indirect misses.
system.cpu.branchPred.indirectMispredicted        37439                       # Number of mispredicted indirect branches.
system.cpu.dcache.demand_hits::.cpu.data     43766816                       # number of demand (read+write) hits
system.cpu.dcache.demand_hits::total         43766816                       # number of demand (read+write) hits
system.cpu.dcache.overall_hits::.cpu.data     43775405                       # number of overall hits
system.cpu.dcache.overall_hits::total        43775405                       # number of overall hits
system.cpu.dcache.demand_misses::.cpu.data       135621                       # number of demand (read+write) misses
system.cpu.dcache.demand_misses::total         135621                       # number of demand (read+write) misses
system.cpu.dcache.overall_misses::.cpu.data       135781                       # number of overall misses
system.cpu.dcache.overall_misses::total        135781                       # number of overall misses
system.cpu.dcache.demand_miss_latency::.cpu.data   4597927000                       # number of demand (read+write) miss cycles
system.cpu.dcache.demand_miss_latency::total   4597927000                       # number of demand (read+write) miss cycles
system.cpu.dcache.overall_miss_latency::.cpu.data   4597927000                       # number of overall miss cycles
system.cpu.dcache.overall_miss_latency::total   4597927000                       # number of overall miss cycles
system.cpu.dcache.demand_accesses::.cpu.data     43902437                       # number of demand (read+write) accesses
system.cpu.dcache.demand_accesses::total     43902437                       # number of demand (read+write) accesses
system.cpu.dcache.overall_accesses::.cpu.data     43911186                       # number of overall (read+write) accesses
system.cpu.dcache.overall_accesses::total     43911186                       # number of overall (read+write) accesses
system.cpu.dcache.demand_miss_rate::.cpu.data     0.003089                       # miss rate for demand accesses
system.cpu.dcache.demand_miss_rate::total     0.003089                       # miss rate for demand accesses
system.cpu.dcache.overall_miss_rate::.cpu.data     0.003092                       # miss rate for overall accesses
system.cpu.dcache.overall_miss_rate::total     0.003092                       # miss rate for overall accesses
system.cpu.dcache.demand_avg_miss_latency::.cpu.data 33902.765796                       # average overall miss latency
system.cpu.dcache.demand_avg_miss_latency::total 33902.765796                       # average overall miss latency
system.cpu.dcache.overall_avg_miss_latency::.cpu.data 33862.815858                       # average overall miss latency
system.cpu.dcache.overall_avg_miss_latency::total 33862.815858                       # average overall miss latency
system.cpu.dcache.blocked_cycles::no_mshrs           62                       # number of cycles access was blocked
system.cpu.dcache.blocked_cycles::no_targets            0                       # number of cycles access was blocked
system.cpu.dcache.blocked::no_mshrs                 1                       # number of cycles access was blocked
system.cpu.dcache.blocked::no_targets               0                       # number of cycles access was blocked
system.cpu.dcache.avg_blocked_cycles::no_mshrs           62                       # average number of cycles each access was blocked
system.cpu.dcache.avg_blocked_cycles::no_targets          nan                       # average number of cycles each access was blocked
system.cpu.dcache.writebacks::.writebacks       122770                       # number of writebacks
system.cpu.dcache.writebacks::total            122770                       # number of writebacks
system.cpu.dcache.demand_mshr_hits::.cpu.data         9528                       # number of demand (read+write) MSHR hits
system.cpu.dcache.demand_mshr_hits::total         9528                       # number of demand (read+write) MSHR hits
system.cpu.dcache.overall_mshr_hits::.cpu.data         9528                       # number of overall MSHR hits
system.cpu.dcache.overall_mshr_hits::total         9528                       # number of overall MSHR hits
system.cpu.dcache.demand_mshr_misses::.cpu.data       126093                       # number of demand (read+write) MSHR misses
system.cpu.dcache.demand_mshr_misses::total       126093                       # number of demand (read+write) MSHR misses
system.cpu.dcache.overall_mshr_misses::.cpu.data       126239                       # number of overall MSHR misses
system.cpu.dcache.overall_mshr_misses::total       126239                       # number of overall MSHR misses
system.cpu.dcache.demand_mshr_miss_latency::.cpu.data   3966447000                       # number of demand (read+write) MSHR miss cycles
system.cpu.dcache.demand_mshr_miss_latency::total   3966447000                       # number of demand (read+write) MSHR miss cycles
system.cpu.dcache.overall_mshr_miss_latency::.cpu.data   3977016000                       # number of overall MSHR miss cycles
system.cpu.dcache.overall_mshr_miss_latency::total   3977016000                       # number of overall MSHR miss cycles
system.cpu.dcache.demand_mshr_miss_rate::.cpu.data     0.002872                       # mshr miss rate for demand accesses
system.cpu.dcache.demand_mshr_miss_rate::total     0.002872                       # mshr miss rate for demand accesses
system.cpu.dcache.overall_mshr_miss_rate::.cpu.data     0.002875                       # mshr miss rate for overall accesses
system.cpu.dcache.overall_mshr_miss_rate::total     0.002875                       # mshr miss rate for overall accesses
system.cpu.dcache.demand_avg_mshr_miss_latency::.cpu.data 31456.520187                       # average overall mshr miss latency
system.cpu.dcache.demand_avg_mshr_miss_latency::total 31456.520187                       # average overall mshr miss latency
system.cpu.dcache.overall_avg_mshr_miss_latency::.cpu.data 31503.861723                       # average overall mshr miss latency
system.cpu.dcache.overall_avg_mshr_miss_latency::total 31503.861723                       # average overall mshr miss latency
system.cpu.dcache.replacements                 125216                       # number of replacements
system.cpu.dcache.ReadReq_hits::.cpu.data     37510071                       # number of ReadReq hits
system.cpu.dcache.ReadReq_hits::total        37510071                       # number of ReadReq hits
system.cpu.dcache.ReadReq_misses::.cpu.data        71534                       # number of ReadReq misses
system.cpu.dcache.ReadReq_misses::total         71534                       # number of ReadReq misses
system.cpu.dcache.ReadReq_miss_latency::.cpu.data   2402664000                       # number of ReadReq miss cycles
system.cpu.dcache.ReadReq_miss_latency::total   2402664000                       # number of ReadReq miss cycles
system.cpu.dcache.ReadReq_accesses::.cpu.data     37581605                       # number of ReadReq accesses(hits+misses)
system.cpu.dcache.ReadReq_accesses::total     37581605                       # number of ReadReq accesses(hits+misses)
system.cpu.dcache.ReadReq_miss_rate::.cpu.data     0.001903                       # miss rate for ReadReq accesses
system.cpu.dcache.ReadReq_miss_rate::total     0.001903                       # miss rate for ReadReq accesses
system.cpu.dcache.ReadReq_avg_miss_latency::.cpu.data 33587.720525                       # average ReadReq miss latency
system.cpu.dcache.ReadReq_avg_miss_latency::total 33587.720525                       # average ReadReq miss latency
system.cpu.dcache.ReadReq_mshr_hits::.cpu.data         3410                       # number of ReadReq MSHR hits
system.cpu.dcache.ReadReq_mshr_hits::total         3410                       # number of ReadReq MSHR hits
system.cpu.dcache.ReadReq_mshr_misses::.cpu.data        68124                       # number of ReadReq MSHR misses
system.cpu.dcache.ReadReq_mshr_misses::total        68124                       # number of ReadReq MSHR misses
system.cpu.dcache.ReadReq_mshr_miss_latency::.cpu.data   2179418000                       # number of ReadReq MSHR miss cycles
system.cpu.dcache.ReadReq_mshr_miss_latency::total   2179418000                       # number of ReadReq MSHR miss cycles
system.cpu.dcache.ReadReq_mshr_miss_rate::.cpu.data     0.001813                       # mshr miss rate for ReadReq accesses
system.cpu.dcache.ReadReq_mshr_miss_rate::total     0.001813                       # mshr miss rate for ReadReq accesses
system.cpu.dcache.ReadReq_avg_mshr_miss_latency::.cpu.data 31991.926487                       # average ReadReq mshr miss latency
system.cpu.dcache.ReadReq_avg_mshr_miss_latency::total 31991.926487                       # average ReadReq mshr miss latency
system.cpu.dcache.WriteReq_hits::.cpu.data      6256745                       # number of WriteReq hits
system.cpu.dcache.WriteReq_hits::total        6256745                       # number of WriteReq hits
system.cpu.dcache.WriteReq_misses::.cpu.data        64087                       # number of WriteReq misses
system.cpu.dcache.WriteReq_misses::total        64087                       # number of WriteReq misses
system.cpu.dcache.WriteReq_miss_latency::.cpu.data   2195263000                       # number of WriteReq miss cycles
system.cpu.dcache.WriteReq_miss_latency::total   2195263000                       # number of WriteReq miss cycles
system.cpu.dcache.WriteReq_accesses::.cpu.data      6320832                       # number of WriteReq accesses(hits+misses)
system.cpu.dcache.WriteReq_accesses::total      6320832                       # number of WriteReq accesses(hits+misses)
system.cpu.dcache.WriteReq_miss_rate::.cpu.data     0.010139                       # miss rate for WriteReq accesses
system.cpu.dcache.WriteReq_miss_rate::total     0.010139                       # miss rate for WriteReq accesses
system.cpu.dcache.WriteReq_avg_miss_latency::.cpu.data 34254.419773                       # average WriteReq miss latency
system.cpu.dcache.WriteReq_avg_miss_latency::total 34254.419773                       # average WriteReq miss latency
system.cpu.dcache.WriteReq_mshr_hits::.cpu.data         6118                       # number of WriteReq MSHR hits
system.cpu.dcache.WriteReq_mshr_hits::total         6118                       # number of WriteReq MSHR hits
system.cpu.dcache.WriteReq_mshr_misses::.cpu.data        57969                       # number of WriteReq MSHR misses
system.cpu.dcache.WriteReq_mshr_misses::total        57969                       # number of WriteReq MSHR misses
system.cpu.dcache.WriteReq_mshr_miss_latency::.cpu.data   1787029000                       # number of WriteReq MSHR miss cycles
system.cpu.dcache.WriteReq_mshr_miss_latency::total   1787029000                       # number of WriteReq MSHR miss cycles
system.cpu.dcache.WriteReq_mshr_miss_rate::.cpu.data     0.009171                       # mshr miss rate for WriteReq accesses
system.cpu.dcache.WriteReq_mshr_miss_rate::total     0.009171                       # mshr miss rate for WriteReq accesses
system.cpu.dcache.WriteReq_avg_mshr_miss_latency::.cpu.data 30827.321499                       # average WriteReq mshr miss latency
system.cpu.dcache.WriteReq_avg_mshr_miss_latency::total 30827.321499                       # average WriteReq mshr miss latency
system.cpu.dcache.SoftPFReq_hits::.cpu.data         8589                       # number of SoftPFReq hits
system.cpu.dcache.SoftPFReq_hits::total          8589                       # number of SoftPFReq hits
system.cpu.dcache.SoftPFReq_misses::.cpu.data          160                       # number of SoftPFReq misses
system.cpu.dcache.SoftPFReq_misses::total          160                       # number of SoftPFReq misses
system.cpu.dcache.SoftPFReq_accesses::.cpu.data         8749                       # number of SoftPFReq accesses(hits+misses)
system.cpu.dcache.SoftPFReq_accesses::total         8749                       # number of SoftPFReq accesses(hits+misses)
system.cpu.dcache.SoftPFReq_miss_rate::.cpu.data     0.018288                       # miss rate for SoftPFReq accesses
system.cpu.dcache.SoftPFReq_miss_rate::total     0.018288                       # miss rate for SoftPFReq accesses
system.cpu.dcache.SoftPFReq_mshr_misses::.cpu.data          146                       # number of SoftPFReq MSHR misses
system.cpu.dcache.SoftPFReq_mshr_misses::total          146                       # number of SoftPFReq MSHR misses
system.cpu.dcache.SoftPFReq_mshr_miss_latency::.cpu.data     10569000                       # number of SoftPFReq MSHR miss cycles
system.cpu.dcache.SoftPFReq_mshr_miss_latency::total     10569000                       # number of SoftPFReq MSHR miss cycles
system.cpu.dcache.SoftPFReq_mshr_miss_rate::.cpu.data     0.016688                       # mshr miss rate for SoftPFReq accesses
system.cpu.dcache.SoftPFReq_mshr_miss_rate::total     0.016688                       # mshr miss rate for SoftPFReq accesses
system.cpu.dcache.SoftPFReq_avg_mshr_miss_latency::.cpu.data 72390.410959                       # average SoftPFReq mshr miss latency
system.cpu.dcache.SoftPFReq_avg_mshr_miss_latency::total 72390.410959                       # average SoftPFReq mshr miss latency
system.cpu.dcache.LoadLockedReq_hits::.cpu.data          165                       # number of LoadLockedReq hits
system.cpu.dcache.LoadLockedReq_hits::total          165                       # number of LoadLockedReq hits
system.cpu.dcache.LoadLockedReq_misses::.cpu.data            1                       # number of LoadLockedReq misses
system.cpu.dcache.LoadLockedReq_misses::total            1                       # number of LoadLockedReq misses
system.cpu.dcache.LoadLockedReq_miss_latency::.cpu.data       109000                       # number of LoadLockedReq miss cycles
system.cpu.dcache.LoadLockedReq_miss_latency::total       109000                       # number of LoadLockedReq miss cycles
system.cpu.dcache.LoadLockedReq_accesses::.cpu.data          166                       # number of LoadLockedReq accesses(hits+misses)
system.cpu.dcache.LoadLockedReq_accesses::total          166                       # number of LoadLockedReq accesses(hits+misses)
system.cpu.dcache.LoadLockedReq_miss_rate::.cpu.data     0.006024                       # miss rate for LoadLockedReq accesses
system.cpu.dcache.LoadLockedReq_miss_rate::total     0.006024                       # miss rate for LoadLockedReq accesses
system.cpu.dcache.LoadLockedReq_avg_miss_latency::.cpu.data       109000                       # average LoadLockedReq miss latency
system.cpu.dcache.LoadLockedReq_avg_miss_latency::total       109000                       # average LoadLockedReq miss latency
system.cpu.dcache.LoadLockedReq_mshr_misses::.cpu.data            1                       # number of LoadLockedReq MSHR misses
system.cpu.dcache.LoadLockedReq_mshr_misses::total            1                       # number of LoadLockedReq MSHR misses
system.cpu.dcache.LoadLockedReq_mshr_miss_latency::.cpu.data       107000                       # number of LoadLockedReq MSHR miss cycles
system.cpu.dcache.LoadLockedReq_mshr_miss_latency::total       107000                       # number of LoadLockedReq MSHR miss cycles
system.cpu.dcache.LoadLockedReq_mshr_miss_rate::.cpu.data     0.006024                       # mshr miss rate for LoadLockedReq accesses
system.cpu.dcache.LoadLockedReq_mshr_miss_rate::total     0.006024                       # mshr miss rate for LoadLockedReq accesses
system.cpu.dcache.LoadLockedReq_avg_mshr_miss_latency::.cpu.data       107000                       # average LoadLockedReq mshr miss latency
system.cpu.dcache.LoadLockedReq_avg_mshr_miss_latency::total       107000                       # average LoadLockedReq mshr miss latency
system.cpu.dcache.StoreCondReq_hits::.cpu.data          166                       # number of StoreCondReq hits
system.cpu.dcache.StoreCondReq_hits::total          166                       # number of StoreCondReq hits
system.cpu.dcache.StoreCondReq_accesses::.cpu.data          166                       # number of StoreCondReq accesses(hits+misses)
system.cpu.dcache.StoreCondReq_accesses::total          166                       # number of StoreCondReq accesses(hits+misses)
system.cpu.dcache.power_state.pwrStateResidencyTicks::UNDEFINED 120545756000                       # Cumulative time (in ticks) in various power states
system.cpu.dcache.tags.tagsinuse          1012.620507                       # Cycle average of tags in use
system.cpu.dcache.tags.total_refs            43901976                       # Total number of references to valid blocks.
system.cpu.dcache.tags.sampled_refs            126240                       # Sample count of references to valid blocks.
system.cpu.dcache.tags.avg_refs            347.765970                       # Average number of references to valid blocks.
system.cpu.dcache.tags.warmup_cycle            223000                       # Cycle when the warmup percentage was hit.
system.cpu.dcache.tags.occ_blocks::.cpu.data  1012.620507                       # Average occupied blocks per requestor
system.cpu.dcache.tags.occ_percent::.cpu.data     0.988887                       # Average percentage of cache occupancy
system.cpu.dcache.tags.occ_percent::total     0.988887                       # Average percentage of cache occupancy
system.cpu.dcache.tags.occ_task_id_blocks::1024         1024                       # Occupied blocks per task id
system.cpu.dcache.tags.age_task_id_blocks_1024::0            5                       # Occupied blocks per task id
system.cpu.dcache.tags.age_task_id_blocks_1024::1           41                       # Occupied blocks per task id
system.cpu.dcache.tags.age_task_id_blocks_1024::2          274                       # Occupied blocks per task id
system.cpu.dcache.tags.age_task_id_blocks_1024::3          580                       # Occupied blocks per task id
system.cpu.dcache.tags.age_task_id_blocks_1024::4          124                       # Occupied blocks per task id
system.cpu.dcache.tags.occ_task_id_percent::1024            1                       # Percentage of cache occupancy per task id
system.cpu.dcache.tags.tag_accesses          44037758                       # Number of tag accesses
system.cpu.dcache.tags.data_accesses         44037758                       # Number of data accesses
system.cpu.dcache.tags.power_state.pwrStateResidencyTicks::UNDEFINED 120545756000                       # Cumulative time (in ticks) in various power states
system.cpu.dtb.instHits                             0                       # ITB inst hits
system.cpu.dtb.instMisses                           0                       # ITB inst misses
system.cpu.dtb.readHits                             0                       # DTB read hits
system.cpu.dtb.readMisses                           0                       # DTB read misses
system.cpu.dtb.writeHits                            0                       # DTB write hits
system.cpu.dtb.writeMisses                          0                       # DTB write misses
system.cpu.dtb.inserts                              0                       # Number of times an entry is inserted into the TLB
system.cpu.dtb.flushTlb                             0                       # Number of times complete TLB was flushed
system.cpu.dtb.flushTlbMva                          0                       # Number of times TLB was flushed by MVA
system.cpu.dtb.flushTlbMvaAsid                      0                       # Number of times TLB was flushed by MVA & ASID
system.cpu.dtb.flushTlbAsid                         0                       # Number of times TLB was flushed by ASID
system.cpu.dtb.flushedEntries                       0                       # Number of entries that have been flushed from TLB
system.cpu.dtb.alignFaults                          0                       # Number of TLB faults due to alignment restrictions
system.cpu.dtb.prefetchFaults                       0                       # Number of TLB faults due to prefetch
system.cpu.dtb.domainFaults                         0                       # Number of TLB faults due to domain restrictions
system.cpu.dtb.permsFaults                          0                       # Number of TLB faults due to permissions restrictions
system.cpu.dtb.readAccesses                         0                       # DTB read accesses
system.cpu.dtb.writeAccesses                        0                       # DTB write accesses
system.cpu.dtb.instAccesses                         0                       # ITB inst accesses
system.cpu.dtb.hits                                 0                       # Total TLB (inst and data) hits
system.cpu.dtb.misses                               0                       # Total TLB (inst and data) misses
system.cpu.dtb.accesses                             0                       # Total TLB (inst and data) accesses
system.cpu.dtb.stage2_mmu.stage2_tlb.instHits            0                       # ITB inst hits
system.cpu.dtb.stage2_mmu.stage2_tlb.instMisses            0                       # ITB inst misses
system.cpu.dtb.stage2_mmu.stage2_tlb.readHits            0                       # DTB read hits
system.cpu.dtb.stage2_mmu.stage2_tlb.readMisses            0                       # DTB read misses
system.cpu.dtb.stage2_mmu.stage2_tlb.writeHits            0                       # DTB write hits
system.cpu.dtb.stage2_mmu.stage2_tlb.writeMisses            0                       # DTB write misses
system.cpu.dtb.stage2_mmu.stage2_tlb.inserts            0                       # Number of times an entry is inserted into the TLB
system.cpu.dtb.stage2_mmu.stage2_tlb.flushTlb            0                       # Number of times complete TLB was flushed
system.cpu.dtb.stage2_mmu.stage2_tlb.flushTlbMva            0                       # Number of times TLB was flushed by MVA
system.cpu.dtb.stage2_mmu.stage2_tlb.flushTlbMvaAsid            0                       # Number of times TLB was flushed by MVA & ASID
system.cpu.dtb.stage2_mmu.stage2_tlb.flushTlbAsid            0                       # Number of times TLB was flushed by ASID
system.cpu.dtb.stage2_mmu.stage2_tlb.flushedEntries            0                       # Number of entries that have been flushed from TLB
system.cpu.dtb.stage2_mmu.stage2_tlb.alignFaults            0                       # Number of TLB faults due to alignment restrictions
system.cpu.dtb.stage2_mmu.stage2_tlb.prefetchFaults            0                       # Number of TLB faults due to prefetch
system.cpu.dtb.stage2_mmu.stage2_tlb.domainFaults            0                       # Number of TLB faults due to domain restrictions
system.cpu.dtb.stage2_mmu.stage2_tlb.permsFaults            0                       # Number of TLB faults due to permissions restrictions
system.cpu.dtb.stage2_mmu.stage2_tlb.readAccesses            0                       # DTB read accesses
system.cpu.dtb.stage2_mmu.stage2_tlb.writeAccesses            0                       # DTB write accesses
system.cpu.dtb.stage2_mmu.stage2_tlb.instAccesses            0                       # ITB inst accesses
system.cpu.dtb.stage2_mmu.stage2_tlb.hits            0                       # Total TLB (inst and data) hits
system.cpu.dtb.stage2_mmu.stage2_tlb.misses            0                       # Total TLB (inst and data) misses
system.cpu.dtb.stage2_mmu.stage2_tlb.accesses            0                       # Total TLB (inst and data) accesses
system.cpu.dtb.stage2_mmu.stage2_tlb.walker.walks            0                       # Table walker walks requested
system.cpu.dtb.stage2_mmu.stage2_tlb.walker.requestOrigin_Requested::Data            0                       # Table walker requests started/completed, data/inst
system.cpu.dtb.stage2_mmu.stage2_tlb.walker.requestOrigin_Requested::Inst            0                       # Table walker requests started/completed, data/inst
system.cpu.dtb.stage2_mmu.stage2_tlb.walker.requestOrigin_Requested::total            0                       # Table walker requests started/completed, data/inst
system.cpu.dtb.stage2_mmu.stage2_tlb.walker.requestOrigin_Completed::Data            0                       # Table walker requests started/completed, data/inst
system.cpu.dtb.stage2_mmu.stage2_tlb.walker.requestOrigin_Completed::Inst            0                       # Table walker requests started/completed, data/inst
system.cpu.dtb.stage2_mmu.stage2_tlb.walker.requestOrigin_Completed::total            0                       # Table walker requests started/completed, data/inst
system.cpu.dtb.stage2_mmu.stage2_tlb.walker.requestOrigin::total            0                       # Table walker requests started/completed, data/inst
system.cpu.dtb.stage2_mmu.stage2_tlb.walker.power_state.pwrStateResidencyTicks::UNDEFINED 120545756000                       # Cumulative time (in ticks) in various power states
system.cpu.dtb.walker.walks                         0                       # Table walker walks requested
system.cpu.dtb.walker.requestOrigin_Requested::Data            0                       # Table walker requests started/completed, data/inst
system.cpu.dtb.walker.requestOrigin_Requested::Inst            0                       # Table walker requests started/completed, data/inst
system.cpu.dtb.walker.requestOrigin_Requested::total            0                       # Table walker requests started/completed, data/inst
system.cpu.dtb.walker.requestOrigin_Completed::Data            0                       # Table walker requests started/completed, data/inst
system.cpu.dtb.walker.requestOrigin_Completed::Inst            0                       # Table walker requests started/completed, data/inst
system.cpu.dtb.walker.requestOrigin_Completed::total            0                       # Table walker requests started/completed, data/inst
system.cpu.dtb.walker.requestOrigin::total            0                       # Table walker requests started/completed, data/inst
system.cpu.dtb.walker.power_state.pwrStateResidencyTicks::UNDEFINED 120545756000                       # Cumulative time (in ticks) in various power states
system.cpu.fetch2.intInstructions            48865771                       # Number of integer instructions successfully decoded
system.cpu.fetch2.fpInstructions                    0                       # Number of floating point instructions successfully decoded
system.cpu.fetch2.vecInstructions                   0                       # Number of SIMD instructions successfully decoded
system.cpu.fetch2.loadInstructions           40552954                       # Number of memory load instructions successfully decoded
system.cpu.fetch2.storeInstructions           6265859                       # Number of memory store instructions successfully decoded
system.cpu.fetch2.amoInstructions                   0                       # Number of memory atomic instructions successfully decoded
system.cpu.icache.demand_hits::.cpu.inst     17281579                       # number of demand (read+write) hits
system.cpu.icache.demand_hits::total         17281579                       # number of demand (read+write) hits
system.cpu.icache.overall_hits::.cpu.inst     17281579                       # number of overall hits
system.cpu.icache.overall_hits::total        17281579                       # number of overall hits
system.cpu.icache.demand_misses::.cpu.inst         6999                       # number of demand (read+write) misses
system.cpu.icache.demand_misses::total           6999                       # number of demand (read+write) misses
system.cpu.icache.overall_misses::.cpu.inst         6999                       # number of overall misses
system.cpu.icache.overall_misses::total          6999                       # number of overall misses
system.cpu.icache.demand_miss_latency::.cpu.inst    284442000                       # number of demand (read+write) miss cycles
system.cpu.icache.demand_miss_latency::total    284442000                       # number of demand (read+write) miss cycles
system.cpu.icache.overall_miss_latency::.cpu.inst    284442000                       # number of overall miss cycles
system.cpu.icache.overall_miss_latency::total    284442000                       # number of overall miss cycles
system.cpu.icache.demand_accesses::.cpu.inst     17288578                       # number of demand (read+write) accesses
system.cpu.icache.demand_accesses::total     17288578                       # number of demand (read+write) accesses
system.cpu.icache.overall_accesses::.cpu.inst     17288578                       # number of overall (read+write) accesses
system.cpu.icache.overall_accesses::total     17288578                       # number of overall (read+write) accesses
system.cpu.icache.demand_miss_rate::.cpu.inst     0.000405                       # miss rate for demand accesses
system.cpu.icache.demand_miss_rate::total     0.000405                       # miss rate for demand accesses
system.cpu.icache.overall_miss_rate::.cpu.inst     0.000405                       # miss rate for overall accesses
system.cpu.icache.overall_miss_rate::total     0.000405                       # miss rate for overall accesses
system.cpu.icache.demand_avg_miss_latency::.cpu.inst 40640.377197                       # average overall miss latency
system.cpu.icache.demand_avg_miss_latency::total 40640.377197                       # average overall miss latency
system.cpu.icache.overall_avg_miss_latency::.cpu.inst 40640.377197                       # average overall miss latency
system.cpu.icache.overall_avg_miss_latency::total 40640.377197                       # average overall miss latency
system.cpu.icache.blocked_cycles::no_mshrs            0                       # number of cycles access was blocked
system.cpu.icache.blocked_cycles::no_targets            0                       # number of cycles access was blocked
system.cpu.icache.blocked::no_mshrs                 0                       # number of cycles access was blocked
system.cpu.icache.blocked::no_targets               0                       # number of cycles access was blocked
system.cpu.icache.avg_blocked_cycles::no_mshrs          nan                       # average number of cycles each access was blocked
system.cpu.icache.avg_blocked_cycles::no_targets          nan                       # average number of cycles each access was blocked
system.cpu.icache.writebacks::.writebacks         6184                       # number of writebacks
system.cpu.icache.writebacks::total              6184                       # number of writebacks
system.cpu.icache.demand_mshr_misses::.cpu.inst         6999                       # number of demand (read+write) MSHR misses
system.cpu.icache.demand_mshr_misses::total         6999                       # number of demand (read+write) MSHR misses
system.cpu.icache.overall_mshr_misses::.cpu.inst         6999                       # number of overall MSHR misses
system.cpu.icache.overall_mshr_misses::total         6999                       # number of overall MSHR misses
system.cpu.icache.demand_mshr_miss_latency::.cpu.inst    270444000                       # number of demand (read+write) MSHR miss cycles
system.cpu.icache.demand_mshr_miss_latency::total    270444000                       # number of demand (read+write) MSHR miss cycles
system.cpu.icache.overall_mshr_miss_latency::.cpu.inst    270444000                       # number of overall MSHR miss cycles
system.cpu.icache.overall_mshr_miss_latency::total    270444000                       # number of overall MSHR miss cycles
system.cpu.icache.demand_mshr_miss_rate::.cpu.inst     0.000405                       # mshr miss rate for demand accesses
system.cpu.icache.demand_mshr_miss_rate::total     0.000405                       # mshr miss rate for demand accesses
system.cpu.icache.overall_mshr_miss_rate::.cpu.inst     0.000405                       # mshr miss rate for overall accesses
system.cpu.icache.overall_mshr_miss_rate::total     0.000405                       # mshr miss rate for overall accesses
system.cpu.icache.demand_avg_mshr_miss_latency::.cpu.inst 38640.377197                       # average overall mshr miss latency
system.cpu.icache.demand_avg_mshr_miss_latency::total 38640.377197                       # average overall mshr miss latency
system.cpu.icache.overall_avg_mshr_miss_latency::.cpu.inst 38640.377197                       # average overall mshr miss latency
system.cpu.icache.overall_avg_mshr_miss_latency::total 38640.377197                       # average overall mshr miss latency
system.cpu.icache.replacements                   6184                       # number of replacements
system.cpu.icache.ReadReq_hits::.cpu.inst     17281579                       # number of ReadReq hits
system.cpu.icache.ReadReq_hits::total        17281579                       # number of ReadReq hits
system.cpu.icache.ReadReq_misses::.cpu.inst         6999                       # number of ReadReq misses
system.cpu.icache.ReadReq_misses::total          6999                       # number of ReadReq misses
system.cpu.icache.ReadReq_miss_latency::.cpu.inst    284442000                       # number of ReadReq miss cycles
system.cpu.icache.ReadReq_miss_latency::total    284442000                       # number of ReadReq miss cycles
system.cpu.icache.ReadReq_accesses::.cpu.inst     17288578                       # number of ReadReq accesses(hits+misses)
system.cpu.icache.ReadReq_accesses::total     17288578                       # number of ReadReq accesses(hits+misses)
system.cpu.icache.ReadReq_miss_rate::.cpu.inst     0.000405                       # miss rate for ReadReq accesses
system.cpu.icache.ReadReq_miss_rate::total     0.000405                       # miss rate for ReadReq accesses
system.cpu.icache.ReadReq_avg_miss_latency::.cpu.inst 40640.377197                       # average ReadReq miss latency
system.cpu.icache.ReadReq_avg_miss_latency::total 40640.377197                       # average ReadReq miss latency
system.cpu.icache.ReadReq_mshr_misses::.cpu.inst         6999                       # number of ReadReq MSHR misses
system.cpu.icache.ReadReq_mshr_misses::total         6999                       # number of ReadReq MSHR misses
system.cpu.icache.ReadReq_mshr_miss_latency::.cpu.inst    270444000                       # number of ReadReq MSHR miss cycles
system.cpu.icache.ReadReq_mshr_miss_latency::total    270444000                       # number of ReadReq MSHR miss cycles
system.cpu.icache.ReadReq_mshr_miss_rate::.cpu.inst     0.000405                       # mshr miss rate for ReadReq accesses
system.cpu.icache.ReadReq_mshr_miss_rate::total     0.000405                       # mshr miss rate for ReadReq accesses
system.cpu.icache.ReadReq_avg_mshr_miss_latency::.cpu.inst 38640.377197                       # average ReadReq mshr miss latency
system.cpu.icache.ReadReq_avg_mshr_miss_latency::total 38640.377197                       # average ReadReq mshr miss latency
system.cpu.icache.power_state.pwrStateResidencyTicks::UNDEFINED 120545756000                       # Cumulative time (in ticks) in various power states
system.cpu.icache.tags.tagsinuse           812.509073                       # Cycle average of tags in use
system.cpu.icache.tags.total_refs            17288578                       # Total number of references to valid blocks.
system.cpu.icache.tags.sampled_refs              6999                       # Sample count of references to valid blocks.
system.cpu.icache.tags.avg_refs           2470.149736                       # Average number of references to valid blocks.
system.cpu.icache.tags.warmup_cycle            108000                       # Cycle when the warmup percentage was hit.
system.cpu.icache.tags.occ_blocks::.cpu.inst   812.509073                       # Average occupied blocks per requestor
system.cpu.icache.tags.occ_percent::.cpu.inst     0.793466                       # Average percentage of cache occupancy
system.cpu.icache.tags.occ_percent::total     0.793466                       # Average percentage of cache occupancy
system.cpu.icache.tags.occ_task_id_blocks::1024          815                       # Occupied blocks per task id
system.cpu.icache.tags.age_task_id_blocks_1024::2            2                       # Occupied blocks per task id
system.cpu.icache.tags.age_task_id_blocks_1024::3            2                       # Occupied blocks per task id
system.cpu.icache.tags.age_task_id_blocks_1024::4          811                       # Occupied blocks per task id
system.cpu.icache.tags.occ_task_id_percent::1024     0.795898                       # Percentage of cache occupancy per task id
system.cpu.icache.tags.tag_accesses          17295577                       # Number of tag accesses
system.cpu.icache.tags.data_accesses         17295577                       # Number of data accesses
system.cpu.icache.tags.power_state.pwrStateResidencyTicks::UNDEFINED 120545756000                       # Cumulative time (in ticks) in various power states
system.cpu.itb.instHits                             0                       # ITB inst hits
system.cpu.itb.instMisses                           0                       # ITB inst misses
system.cpu.itb.readHits                             0                       # DTB read hits
system.cpu.itb.readMisses                           0                       # DTB read misses
system.cpu.itb.writeHits                            0                       # DTB write hits
system.cpu.itb.writeMisses                          0                       # DTB write misses
system.cpu.itb.inserts                              0                       # Number of times an entry is inserted into the TLB
system.cpu.itb.flushTlb                             0                       # Number of times complete TLB was flushed
system.cpu.itb.flushTlbMva                          0                       # Number of times TLB was flushed by MVA
system.cpu.itb.flushTlbMvaAsid                      0                       # Number of times TLB was flushed by MVA & ASID
system.cpu.itb.flushTlbAsid                         0                       # Number of times TLB was flushed by ASID
system.cpu.itb.flushedEntries                       0                       # Number of entries that have been flushed from TLB
system.cpu.itb.alignFaults                          0                       # Number of TLB faults due to alignment restrictions
system.cpu.itb.prefetchFaults                       0                       # Number of TLB faults due to prefetch
system.cpu.itb.domainFaults                         0                       # Number of TLB faults due to domain restrictions
system.cpu.itb.permsFaults                          0                       # Number of TLB faults due to permissions restrictions
system.cpu.itb.readAccesses                         0                       # DTB read accesses
system.cpu.itb.writeAccesses                        0                       # DTB write accesses
system.cpu.itb.instAccesses                         0                       # ITB inst accesses
system.cpu.itb.hits                                 0                       # Total TLB (inst and data) hits
system.cpu.itb.misses                               0                       # Total TLB (inst and data) misses
system.cpu.itb.accesses                             0                       # Total TLB (inst and data) accesses
system.cpu.itb.stage2_mmu.stage2_tlb.instHits            0                       # ITB inst hits
system.cpu.itb.stage2_mmu.stage2_tlb.instMisses            0                       # ITB inst misses
system.cpu.itb.stage2_mmu.stage2_tlb.readHits            0                       # DTB read hits
system.cpu.itb.stage2_mmu.stage2_tlb.readMisses            0                       # DTB read misses
system.cpu.itb.stage2_mmu.stage2_tlb.writeHits            0                       # DTB write hits
system.cpu.itb.stage2_mmu.stage2_tlb.writeMisses            0                       # DTB write misses
system.cpu.itb.stage2_mmu.stage2_tlb.inserts            0                       # Number of times an entry is inserted into the TLB
system.cpu.itb.stage2_mmu.stage2_tlb.flushTlb            0                       # Number of times complete TLB was flushed
system.cpu.itb.stage2_mmu.stage2_tlb.flushTlbMva            0                       # Number of times TLB was flushed by MVA
system.cpu.itb.stage2_mmu.stage2_tlb.flushTlbMvaAsid            0                       # Number of times TLB was flushed by MVA & ASID
system.cpu.itb.stage2_mmu.stage2_tlb.flushTlbAsid            0                       # Number of times TLB was flushed by ASID
system.cpu.itb.stage2_mmu.stage2_tlb.flushedEntries            0                       # Number of entries that have been flushed from TLB
system.cpu.itb.stage2_mmu.stage2_tlb.alignFaults            0                       # Number of TLB faults due to alignment restrictions
system.cpu.itb.stage2_mmu.stage2_tlb.prefetchFaults            0                       # Number of TLB faults due to prefetch
system.cpu.itb.stage2_mmu.stage2_tlb.domainFaults            0                       # Number of TLB faults due to domain restrictions
system.cpu.itb.stage2_mmu.stage2_tlb.permsFaults            0                       # Number of TLB faults due to permissions restrictions
system.cpu.itb.stage2_mmu.stage2_tlb.readAccesses            0                       # DTB read accesses
system.cpu.itb.stage2_mmu.stage2_tlb.writeAccesses            0                       # DTB write accesses
system.cpu.itb.stage2_mmu.stage2_tlb.instAccesses            0                       # ITB inst accesses
system.cpu.itb.stage2_mmu.stage2_tlb.hits            0                       # Total TLB (inst and data) hits
system.cpu.itb.stage2_mmu.stage2_tlb.misses            0                       # Total TLB (inst and data) misses
system.cpu.itb.stage2_mmu.stage2_tlb.accesses            0                       # Total TLB (inst and data) accesses
system.cpu.itb.stage2_mmu.stage2_tlb.walker.walks            0                       # Table walker walks requested
system.cpu.itb.stage2_mmu.stage2_tlb.walker.requestOrigin_Requested::Data            0                       # Table walker requests started/completed, data/inst
system.cpu.itb.stage2_mmu.stage2_tlb.walker.requestOrigin_Requested::Inst            0                       # Table walker requests started/completed, data/inst
system.cpu.itb.stage2_mmu.stage2_tlb.walker.requestOrigin_Requested::total            0                       # Table walker requests started/completed, data/inst
system.cpu.itb.stage2_mmu.stage2_tlb.walker.requestOrigin_Completed::Data            0                       # Table walker requests started/completed, data/inst
system.cpu.itb.stage2_mmu.stage2_tlb.walker.requestOrigin_Completed::Inst            0                       # Table walker requests started/completed, data/inst
system.cpu.itb.stage2_mmu.stage2_tlb.walker.requestOrigin_Completed::total            0                       # Table walker requests started/completed, data/inst
system.cpu.itb.stage2_mmu.stage2_tlb.walker.requestOrigin::total            0                       # Table walker requests started/completed, data/inst
system.cpu.itb.stage2_mmu.stage2_tlb.walker.power_state.pwrStateResidencyTicks::UNDEFINED 120545756000                       # Cumulative time (in ticks) in various power states
system.cpu.itb.walker.walks                         0                       # Table walker walks requested
system.cpu.itb.walker.requestOrigin_Requested::Data            0                       # Table walker requests started/completed, data/inst
system.cpu.itb.walker.requestOrigin_Requested::Inst            0                       # Table walker requests started/completed, data/inst
system.cpu.itb.walker.requestOrigin_Requested::total            0                       # Table walker requests started/completed, data/inst
system.cpu.itb.walker.requestOrigin_Completed::Data            0                       # Table walker requests started/completed, data/inst
system.cpu.itb.walker.requestOrigin_Completed::Inst            0                       # Table walker requests started/completed, data/inst
system.cpu.itb.walker.requestOrigin_Completed::total            0                       # Table walker requests started/completed, data/inst
system.cpu.itb.walker.requestOrigin::total            0                       # Table walker requests started/completed, data/inst
system.cpu.itb.walker.power_state.pwrStateResidencyTicks::UNDEFINED 120545756000                       # Cumulative time (in ticks) in various power states
system.cpu.power_state.pwrStateResidencyTicks::ON 120545756000                       # Cumulative time (in ticks) in various power states
system.cpu.thread_0.numInsts                100000000                       # Number of Instructions committed
system.cpu.thread_0.numOps                  101102842                       # Number of Ops committed
system.cpu.thread_0.numMemRefs                      0                       # Number of Memory References
system.cpu_clk_domain.clock                      1000                       # Clock period in ticks
system.cpu_voltage_domain.voltage                   1                       # Voltage in Volts
system.l2.demand_hits::.cpu.inst                 5694                       # number of demand (read+write) hits
system.l2.demand_hits::.cpu.data               122038                       # number of demand (read+write) hits
system.l2.demand_hits::total                   127732                       # number of demand (read+write) hits
system.l2.overall_hits::.cpu.inst                5694                       # number of overall hits
system.l2.overall_hits::.cpu.data              122038                       # number of overall hits
system.l2.overall_hits::total                  127732                       # number of overall hits
system.l2.demand_misses::.cpu.inst               1305                       # number of demand (read+write) misses
system.l2.demand_misses::.cpu.data               4202                       # number of demand (read+write) misses
system.l2.demand_misses::total                   5507                       # number of demand (read+write) misses
system.l2.overall_misses::.cpu.inst              1305                       # number of overall misses
system.l2.overall_misses::.cpu.data              4202                       # number of overall misses
system.l2.overall_misses::total                  5507                       # number of overall misses
system.l2.demand_miss_latency::.cpu.inst    128718000                       # number of demand (read+write) miss cycles
system.l2.demand_miss_latency::.cpu.data    413423000                       # number of demand (read+write) miss cycles
system.l2.demand_miss_latency::total        542141000                       # number of demand (read+write) miss cycles
system.l2.overall_miss_latency::.cpu.inst    128718000                       # number of overall miss cycles
system.l2.overall_miss_latency::.cpu.data    413423000                       # number of overall miss cycles
system.l2.overall_miss_latency::total       542141000                       # number of overall miss cycles
system.l2.demand_accesses::.cpu.inst             6999                       # number of demand (read+write) accesses
system.l2.demand_accesses::.cpu.data           126240                       # number of demand (read+write) accesses
system.l2.demand_accesses::total               133239                       # number of demand (read+write) accesses
system.l2.overall_accesses::.cpu.inst            6999                       # number of overall (read+write) accesses
system.l2.overall_accesses::.cpu.data          126240                       # number of overall (read+write) accesses
system.l2.overall_accesses::total              133239                       # number of overall (read+write) accesses
system.l2.demand_miss_rate::.cpu.inst        0.186455                       # miss rate for demand accesses
system.l2.demand_miss_rate::.cpu.data        0.033286                       # miss rate for demand accesses
system.l2.demand_miss_rate::total            0.041332                       # miss rate for demand accesses
system.l2.overall_miss_rate::.cpu.inst       0.186455                       # miss rate for overall accesses
system.l2.overall_miss_rate::.cpu.data       0.033286                       # miss rate for overall accesses
system.l2.overall_miss_rate::total           0.041332                       # miss rate for overall accesses
system.l2.demand_avg_miss_latency::.cpu.inst 98634.482759                       # average overall miss latency
system.l2.demand_avg_miss_latency::.cpu.data 98387.196573                       # average overall miss latency
system.l2.demand_avg_miss_latency::total 98445.796259                       # average overall miss latency
system.l2.overall_avg_miss_latency::.cpu.inst 98634.482759                       # average overall miss latency
system.l2.overall_avg_miss_latency::.cpu.data 98387.196573                       # average overall miss latency
system.l2.overall_avg_miss_latency::total 98445.796259                       # average overall miss latency
system.l2.blocked_cycles::no_mshrs                  0                       # number of cycles access was blocked
system.l2.blocked_cycles::no_targets                0                       # number of cycles access was blocked
system.l2.blocked::no_mshrs                         0                       # number of cycles access was blocked
system.l2.blocked::no_targets                       0                       # number of cycles access was blocked
system.l2.avg_blocked_cycles::no_mshrs            nan                       # average number of cycles each access was blocked
system.l2.avg_blocked_cycles::no_targets          nan                       # average number of cycles each access was blocked
system.l2.demand_mshr_hits::.cpu.inst               1                       # number of demand (read+write) MSHR hits
system.l2.demand_mshr_hits::.cpu.data               6                       # number of demand (read+write) MSHR hits
system.l2.demand_mshr_hits::total                   7                       # number of demand (read+write) MSHR hits
system.l2.overall_mshr_hits::.cpu.inst              1                       # number of overall MSHR hits
system.l2.overall_mshr_hits::.cpu.data              6                       # number of overall MSHR hits
system.l2.overall_mshr_hits::total                  7                       # number of overall MSHR hits
system.l2.demand_mshr_misses::.cpu.inst          1304                       # number of demand (read+write) MSHR misses
system.l2.demand_mshr_misses::.cpu.data          4196                       # number of demand (read+write) MSHR misses
system.l2.demand_mshr_misses::total              5500                       # number of demand (read+write) MSHR misses
system.l2.overall_mshr_misses::.cpu.inst         1304                       # number of overall MSHR misses
system.l2.overall_mshr_misses::.cpu.data         4196                       # number of overall MSHR misses
system.l2.overall_mshr_misses::total             5500                       # number of overall MSHR misses
system.l2.demand_mshr_miss_latency::.cpu.inst    102555000                       # number of demand (read+write) MSHR miss cycles
system.l2.demand_mshr_miss_latency::.cpu.data    329052000                       # number of demand (read+write) MSHR miss cycles
system.l2.demand_mshr_miss_latency::total    431607000                       # number of demand (read+write) MSHR miss cycles
system.l2.overall_mshr_miss_latency::.cpu.inst    102555000                       # number of overall MSHR miss cycles
system.l2.overall_mshr_miss_latency::.cpu.data    329052000                       # number of overall MSHR miss cycles
system.l2.overall_mshr_miss_latency::total    431607000                       # number of overall MSHR miss cycles
system.l2.demand_mshr_miss_rate::.cpu.inst     0.186312                       # mshr miss rate for demand accesses
system.l2.demand_mshr_miss_rate::.cpu.data     0.033238                       # mshr miss rate for demand accesses
system.l2.demand_mshr_miss_rate::total       0.041279                       # mshr miss rate for demand accesses
system.l2.overall_mshr_miss_rate::.cpu.inst     0.186312                       # mshr miss rate for overall accesses
system.l2.overall_mshr_miss_rate::.cpu.data     0.033238                       # mshr miss rate for overall accesses
system.l2.overall_mshr_miss_rate::total      0.041279                       # mshr miss rate for overall accesses
system.l2.demand_avg_mshr_miss_latency::.cpu.inst 78646.472393                       # average overall mshr miss latency
system.l2.demand_avg_mshr_miss_latency::.cpu.data 78420.400381                       # average overall mshr miss latency
system.l2.demand_avg_mshr_miss_latency::total        78474                       # average overall mshr miss latency
system.l2.overall_avg_mshr_miss_latency::.cpu.inst 78646.472393                       # average overall mshr miss latency
system.l2.overall_avg_mshr_miss_latency::.cpu.data 78420.400381                       # average overall mshr miss latency
system.l2.overall_avg_mshr_miss_latency::total        78474                       # average overall mshr miss latency
system.l2.replacements                            272                       # number of replacements
system.l2.WritebackDirty_hits::.writebacks       122770                       # number of WritebackDirty hits
system.l2.WritebackDirty_hits::total           122770                       # number of WritebackDirty hits
system.l2.WritebackDirty_accesses::.writebacks       122770                       # number of WritebackDirty accesses(hits+misses)
system.l2.WritebackDirty_accesses::total       122770                       # number of WritebackDirty accesses(hits+misses)
system.l2.WritebackClean_hits::.writebacks         5647                       # number of WritebackClean hits
system.l2.WritebackClean_hits::total             5647                       # number of WritebackClean hits
system.l2.WritebackClean_accesses::.writebacks         5647                       # number of WritebackClean accesses(hits+misses)
system.l2.WritebackClean_accesses::total         5647                       # number of WritebackClean accesses(hits+misses)
system.l2.CleanEvict_mshr_misses::.writebacks           45                       # number of CleanEvict MSHR misses
system.l2.CleanEvict_mshr_misses::total            45                       # number of CleanEvict MSHR misses
system.l2.CleanEvict_mshr_miss_rate::.writebacks          inf                       # mshr miss rate for CleanEvict accesses
system.l2.CleanEvict_mshr_miss_rate::total          inf                       # mshr miss rate for CleanEvict accesses
system.l2.ReadExReq_hits::.cpu.data             54327                       # number of ReadExReq hits
system.l2.ReadExReq_hits::total                 54327                       # number of ReadExReq hits
system.l2.ReadExReq_misses::.cpu.data            3665                       # number of ReadExReq misses
system.l2.ReadExReq_misses::total                3665                       # number of ReadExReq misses
system.l2.ReadExReq_miss_latency::.cpu.data    360178000                       # number of ReadExReq miss cycles
system.l2.ReadExReq_miss_latency::total     360178000                       # number of ReadExReq miss cycles
system.l2.ReadExReq_accesses::.cpu.data         57992                       # number of ReadExReq accesses(hits+misses)
system.l2.ReadExReq_accesses::total             57992                       # number of ReadExReq accesses(hits+misses)
system.l2.ReadExReq_miss_rate::.cpu.data     0.063198                       # miss rate for ReadExReq accesses
system.l2.ReadExReq_miss_rate::total         0.063198                       # miss rate for ReadExReq accesses
system.l2.ReadExReq_avg_miss_latency::.cpu.data 98275.034106                       # average ReadExReq miss latency
system.l2.ReadExReq_avg_miss_latency::total 98275.034106                       # average ReadExReq miss latency
system.l2.ReadExReq_mshr_misses::.cpu.data         3665                       # number of ReadExReq MSHR misses
system.l2.ReadExReq_mshr_misses::total           3665                       # number of ReadExReq MSHR misses
system.l2.ReadExReq_mshr_miss_latency::.cpu.data    286878000                       # number of ReadExReq MSHR miss cycles
system.l2.ReadExReq_mshr_miss_latency::total    286878000                       # number of ReadExReq MSHR miss cycles
system.l2.ReadExReq_mshr_miss_rate::.cpu.data     0.063198                       # mshr miss rate for ReadExReq accesses
system.l2.ReadExReq_mshr_miss_rate::total     0.063198                       # mshr miss rate for ReadExReq accesses
system.l2.ReadExReq_avg_mshr_miss_latency::.cpu.data 78275.034106                       # average ReadExReq mshr miss latency
system.l2.ReadExReq_avg_mshr_miss_latency::total 78275.034106                       # average ReadExReq mshr miss latency
system.l2.ReadCleanReq_hits::.cpu.inst           5694                       # number of ReadCleanReq hits
system.l2.ReadCleanReq_hits::total               5694                       # number of ReadCleanReq hits
system.l2.ReadCleanReq_misses::.cpu.inst         1305                       # number of ReadCleanReq misses
system.l2.ReadCleanReq_misses::total             1305                       # number of ReadCleanReq misses
system.l2.ReadCleanReq_miss_latency::.cpu.inst    128718000                       # number of ReadCleanReq miss cycles
system.l2.ReadCleanReq_miss_latency::total    128718000                       # number of ReadCleanReq miss cycles
system.l2.ReadCleanReq_accesses::.cpu.inst         6999                       # number of ReadCleanReq accesses(hits+misses)
system.l2.ReadCleanReq_accesses::total           6999                       # number of ReadCleanReq accesses(hits+misses)
system.l2.ReadCleanReq_miss_rate::.cpu.inst     0.186455                       # miss rate for ReadCleanReq accesses
system.l2.ReadCleanReq_miss_rate::total      0.186455                       # miss rate for ReadCleanReq accesses
system.l2.ReadCleanReq_avg_miss_latency::.cpu.inst 98634.482759                       # average ReadCleanReq miss latency
system.l2.ReadCleanReq_avg_miss_latency::total 98634.482759                       # average ReadCleanReq miss latency
system.l2.ReadCleanReq_mshr_hits::.cpu.inst            1                       # number of ReadCleanReq MSHR hits
system.l2.ReadCleanReq_mshr_hits::total             1                       # number of ReadCleanReq MSHR hits
system.l2.ReadCleanReq_mshr_misses::.cpu.inst         1304                       # number of ReadCleanReq MSHR misses
system.l2.ReadCleanReq_mshr_misses::total         1304                       # number of ReadCleanReq MSHR misses
system.l2.ReadCleanReq_mshr_miss_latency::.cpu.inst    102555000                       # number of ReadCleanReq MSHR miss cycles
system.l2.ReadCleanReq_mshr_miss_latency::total    102555000                       # number of ReadCleanReq MSHR miss cycles
system.l2.ReadCleanReq_mshr_miss_rate::.cpu.inst     0.186312                       # mshr miss rate for ReadCleanReq accesses
system.l2.ReadCleanReq_mshr_miss_rate::total     0.186312                       # mshr miss rate for ReadCleanReq accesses
system.l2.ReadCleanReq_avg_mshr_miss_latency::.cpu.inst 78646.472393                       # average ReadCleanReq mshr miss latency
system.l2.ReadCleanReq_avg_mshr_miss_latency::total 78646.472393                       # average ReadCleanReq mshr miss latency
system.l2.ReadSharedReq_hits::.cpu.data         67711                       # number of ReadSharedReq hits
system.l2.ReadSharedReq_hits::total             67711                       # number of ReadSharedReq hits
system.l2.ReadSharedReq_misses::.cpu.data          537                       # number of ReadSharedReq misses
system.l2.ReadSharedReq_misses::total             537                       # number of ReadSharedReq misses
system.l2.ReadSharedReq_miss_latency::.cpu.data     53245000                       # number of ReadSharedReq miss cycles
system.l2.ReadSharedReq_miss_latency::total     53245000                       # number of ReadSharedReq miss cycles
system.l2.ReadSharedReq_accesses::.cpu.data        68248                       # number of ReadSharedReq accesses(hits+misses)
system.l2.ReadSharedReq_accesses::total         68248                       # number of ReadSharedReq accesses(hits+misses)
system.l2.ReadSharedReq_miss_rate::.cpu.data     0.007868                       # miss rate for ReadSharedReq accesses
system.l2.ReadSharedReq_miss_rate::total     0.007868                       # miss rate for ReadSharedReq accesses
system.l2.ReadSharedReq_avg_miss_latency::.cpu.data 99152.700186                       # average ReadSharedReq miss latency
system.l2.ReadSharedReq_avg_miss_latency::total 99152.700186                       # average ReadSharedReq miss latency
system.l2.ReadSharedReq_mshr_hits::.cpu.data            6                       # number of ReadSharedReq MSHR hits
system.l2.ReadSharedReq_mshr_hits::total            6                       # number of ReadSharedReq MSHR hits
system.l2.ReadSharedReq_mshr_misses::.cpu.data          531                       # number of ReadSharedReq MSHR misses
system.l2.ReadSharedReq_mshr_misses::total          531                       # number of ReadSharedReq MSHR misses
system.l2.ReadSharedReq_mshr_miss_latency::.cpu.data     42174000                       # number of ReadSharedReq MSHR miss cycles
system.l2.ReadSharedReq_mshr_miss_latency::total     42174000                       # number of ReadSharedReq MSHR miss cycles
system.l2.ReadSharedReq_mshr_miss_rate::.cpu.data     0.007780                       # mshr miss rate for ReadSharedReq accesses
system.l2.ReadSharedReq_mshr_miss_rate::total     0.007780                       # mshr miss rate for ReadSharedReq accesses
system.l2.ReadSharedReq_avg_mshr_miss_latency::.cpu.data 79423.728814                       # average ReadSharedReq mshr miss latency
system.l2.ReadSharedReq_avg_mshr_miss_latency::total 79423.728814                       # average ReadSharedReq mshr miss latency
system.l2.power_state.pwrStateResidencyTicks::UNDEFINED 120545756000                       # Cumulative time (in ticks) in various power states
system.l2.tags.tagsinuse                  5074.217133                       # Cycle average of tags in use
system.l2.tags.total_refs                      262952                       # Total number of references to valid blocks.
system.l2.tags.sampled_refs                      5539                       # Sample count of references to valid blocks.
system.l2.tags.avg_refs                     47.472829                       # Average number of references to valid blocks.
system.l2.tags.warmup_cycle                     87000                       # Cycle when the warmup percentage was hit.
system.l2.tags.occ_blocks::.writebacks      32.182215                       # Average occupied blocks per requestor
system.l2.tags.occ_blocks::.cpu.inst      1124.046540                       # Average occupied blocks per requestor
system.l2.tags.occ_blocks::.cpu.data      3917.988378                       # Average occupied blocks per requestor
system.l2.tags.occ_percent::.writebacks      0.003928                       # Average percentage of cache occupancy
system.l2.tags.occ_percent::.cpu.inst        0.137213                       # Average percentage of cache occupancy
system.l2.tags.occ_percent::.cpu.data        0.478270                       # Average percentage of cache occupancy
system.l2.tags.occ_percent::total            0.619411                       # Average percentage of cache occupancy
system.l2.tags.occ_task_id_blocks::1024          5267                       # Occupied blocks per task id
system.l2.tags.age_task_id_blocks_1024::4         5267                       # Occupied blocks per task id
system.l2.tags.occ_task_id_percent::1024     0.642944                       # Percentage of cache occupancy per task id
system.l2.tags.tag_accesses                    531547                       # Number of tag accesses
system.l2.tags.data_accesses                   531547                       # Number of data accesses
system.l2.tags.power_state.pwrStateResidencyTicks::UNDEFINED 120545756000                       # Cumulative time (in ticks) in various power states
system.mem_ctrls.avgPriority_.cpu.inst::samples      1304.00                       # Average QoS priority value for accepted requests
system.mem_ctrls.avgPriority_.cpu.data::samples      4196.00                       # Average QoS priority value for accepted requests
system.mem_ctrls.priorityMinLatency      0.000000018750                       # per QoS priority minimum request to response latency (s)
system.mem_ctrls.priorityMaxLatency      0.000000575000                       # per QoS priority maximum request to response latency (s)
system.mem_ctrls.numReadWriteTurnArounds            0                       # Number of turnarounds from READ to WRITE
system.mem_ctrls.numWriteReadTurnArounds            0                       # Number of turnarounds from WRITE to READ
system.mem_ctrls.numStayReadState               41956                       # Number of times bus staying in READ state
system.mem_ctrls.numStayWriteState                  0                       # Number of times bus staying in WRITE state
system.mem_ctrls.readReqs                        5500                       # Number of read requests accepted
system.mem_ctrls.writeReqs                          0                       # Number of write requests accepted
system.mem_ctrls.readBursts                      5500                       # Number of controller read bursts, including those serviced by the write queue
system.mem_ctrls.writeBursts                        0                       # Number of controller write bursts, including those merged in the write queue
system.mem_ctrls.servicedByWrQ                      0                       # Number of controller read bursts serviced by the write queue
system.mem_ctrls.mergedWrBursts                     0                       # Number of controller write bursts merged with an existing one
system.mem_ctrls.neitherReadNorWriteReqs            0                       # Number of requests that are neither read nor write
system.mem_ctrls.avgRdQLen                       1.00                       # Average read queue length when enqueuing
system.mem_ctrls.avgWrQLen                       0.00                       # Average write queue length when enqueuing
system.mem_ctrls.numRdRetry                         0                       # Number of times read queue was full causing retry
system.mem_ctrls.numWrRetry                         0                       # Number of times write queue was full causing retry
system.mem_ctrls.readPktSize::0                     0                       # Read request sizes (log2)
system.mem_ctrls.readPktSize::1                     0                       # Read request sizes (log2)
system.mem_ctrls.readPktSize::2                     0                       # Read request sizes (log2)
system.mem_ctrls.readPktSize::3                     0                       # Read request sizes (log2)
[...]
system.mem_ctrls.dram.bw_read::total          2920053                       # Total read bandwidth from this memory (bytes/s)
system.mem_ctrls.dram.bw_inst_read::.cpu.inst       692318                       # Instruction read bandwidth from this memory (bytes/s)
system.mem_ctrls.dram.bw_inst_read::total       692318                       # Instruction read bandwidth from this memory (bytes/s)
system.mem_ctrls.dram.bw_total::.cpu.inst       692318                       # Total bandwidth to/from this memory (bytes/s)
system.mem_ctrls.dram.bw_total::.cpu.data      2227735                       # Total bandwidth to/from this memory (bytes/s)
system.mem_ctrls.dram.bw_total::total         2920053                       # Total bandwidth to/from this memory (bytes/s)
system.mem_ctrls.dram.readBursts                 5500                       # Number of DRAM read bursts
system.mem_ctrls.dram.writeBursts                   0                       # Number of DRAM write bursts
system.mem_ctrls.dram.perBankRdBursts::0          253                       # Per bank write bursts
system.mem_ctrls.dram.perBankRdBursts::1          273                       # Per bank write bursts
system.mem_ctrls.dram.perBankRdBursts::2          243                       # Per bank write bursts
system.mem_ctrls.dram.perBankRdBursts::3          403                       # Per bank write bursts
system.mem_ctrls.dram.perBankRdBursts::4          418                       # Per bank write bursts
system.mem_ctrls.dram.perBankRdBursts::5          374                       # Per bank write bursts
system.mem_ctrls.dram.perBankRdBursts::6          377                       # Per bank write bursts
system.mem_ctrls.dram.perBankRdBursts::7          402                       # Per bank write bursts
system.mem_ctrls.dram.perBankRdBursts::8          359                       # Per bank write bursts
system.mem_ctrls.dram.perBankRdBursts::9          295                       # Per bank write bursts
system.mem_ctrls.dram.perBankRdBursts::10          427                       # Per bank write bursts
system.mem_ctrls.dram.perBankRdBursts::11          288                       # Per bank write bursts
system.mem_ctrls.dram.perBankRdBursts::12          311                       # Per bank write bursts
system.mem_ctrls.dram.perBankRdBursts::13          339                       # Per bank write bursts
system.mem_ctrls.dram.perBankRdBursts::14          401                       # Per bank write bursts
system.mem_ctrls.dram.perBankRdBursts::15          337                       # Per bank write bursts
system.mem_ctrls.dram.perBankWrBursts::0            0                       # Per bank write bursts
system.mem_ctrls.dram.perBankWrBursts::1            0                       # Per bank write bursts
system.mem_ctrls.dram.perBankWrBursts::2            0                       # Per bank write bursts
system.mem_ctrls.dram.perBankWrBursts::3            0                       # Per bank write bursts
system.mem_ctrls.dram.perBankWrBursts::4            0                       # Per bank write bursts
system.mem_ctrls.dram.perBankWrBursts::5            0                       # Per bank write bursts
system.mem_ctrls.dram.perBankWrBursts::6            0                       # Per bank write bursts
system.mem_ctrls.dram.perBankWrBursts::7            0                       # Per bank write bursts
system.mem_ctrls.dram.perBankWrBursts::8            0                       # Per bank write bursts
system.mem_ctrls.dram.perBankWrBursts::9            0                       # Per bank write bursts
system.mem_ctrls.dram.perBankWrBursts::10            0                       # Per bank write bursts
system.mem_ctrls.dram.perBankWrBursts::11            0                       # Per bank write bursts
system.mem_ctrls.dram.perBankWrBursts::12            0                       # Per bank write bursts
system.mem_ctrls.dram.perBankWrBursts::13            0                       # Per bank write bursts
system.mem_ctrls.dram.perBankWrBursts::14            0                       # Per bank write bursts
system.mem_ctrls.dram.perBankWrBursts::15            0                       # Per bank write bursts
system.mem_ctrls.dram.totQLat                46181250                       # Total ticks spent queuing
system.mem_ctrls.dram.totBusLat              27500000                       # Total ticks spent in databus transfers
system.mem_ctrls.dram.totMemAccLat          149306250                       # Total ticks spent from burst creation until serviced by the DRAM
system.mem_ctrls.dram.avgQLat                 8396.59                       # Average queueing delay per DRAM burst
system.mem_ctrls.dram.avgBusLat               5000.00                       # Average bus latency per DRAM burst
system.mem_ctrls.dram.avgMemAccLat           27146.59                       # Average memory access latency per DRAM burst
system.mem_ctrls.dram.readRowHits                3943                       # Number of row buffer hits during reads
system.mem_ctrls.dram.writeRowHits                  0                       # Number of row buffer hits during writes
system.mem_ctrls.dram.readRowHitRate            71.69                       # Row buffer hit rate for reads
system.mem_ctrls.dram.writeRowHitRate             nan                       # Row buffer hit rate for writes
system.mem_ctrls.dram.bytesPerActivate::samples         1557                       # Bytes accessed per row activation
system.mem_ctrls.dram.bytesPerActivate::mean   226.075787                       # Bytes accessed per row activation
system.mem_ctrls.dram.bytesPerActivate::gmean   146.807327                       # Bytes accessed per row activation
system.mem_ctrls.dram.bytesPerActivate::stdev   263.047528                       # Bytes accessed per row activation
system.mem_ctrls.dram.bytesPerActivate::0-127          570     36.61%     36.61% # Bytes accessed per row activation
system.mem_ctrls.dram.bytesPerActivate::128-255          592     38.02%     74.63% # Bytes accessed per row activation
system.mem_ctrls.dram.bytesPerActivate::256-383          163     10.47%     85.10% # Bytes accessed per row activation
system.mem_ctrls.dram.bytesPerActivate::384-511           41      2.63%     87.73% # Bytes accessed per row activation
system.mem_ctrls.dram.bytesPerActivate::512-639           34      2.18%     89.92% # Bytes accessed per row activation
system.mem_ctrls.dram.bytesPerActivate::640-767           19      1.22%     91.14% # Bytes accessed per row activation
system.mem_ctrls.dram.bytesPerActivate::768-895           19      1.22%     92.36% # Bytes accessed per row activation
system.mem_ctrls.dram.bytesPerActivate::896-1023           13      0.83%     93.19% # Bytes accessed per row activation
system.mem_ctrls.dram.bytesPerActivate::1024-1151          106      6.81%    100.00% # Bytes accessed per row activation
system.mem_ctrls.dram.bytesPerActivate::total         1557                       # Bytes accessed per row activation
system.mem_ctrls.dram.bytesRead                352000                       # Total number of bytes read from DRAM
system.mem_ctrls.dram.bytesWritten                  0                       # Total number of bytes written to DRAM
system.mem_ctrls.dram.avgRdBW                2.920053                       # Average DRAM read bandwidth in MiBytes/s
system.mem_ctrls.dram.avgWrBW                       0                       # Average DRAM write bandwidth in MiBytes/s
system.mem_ctrls.dram.peakBW                 12800.00                       # Theoretical peak bandwidth in MiByte/s
system.mem_ctrls.dram.busUtil                    0.02                       # Data bus utilization in percentage
system.mem_ctrls.dram.busUtilRead                0.02                       # Data bus utilization in percentage for reads
system.mem_ctrls.dram.busUtilWrite               0.00                       # Data bus utilization in percentage for writes
system.mem_ctrls.dram.pageHitRate               71.69                       # Row buffer hit rate, read and write combined
system.mem_ctrls.dram.power_state.pwrStateResidencyTicks::UNDEFINED 120545756000                       # Cumulative time (in ticks) in various power states
system.mem_ctrls.dram.rank0.actEnergy         5804820                       # Energy for activate commands per rank (pJ)
system.mem_ctrls.dram.rank0.preEnergy         3085335                       # Energy for precharge commands per rank (pJ)
system.mem_ctrls.dram.rank0.readEnergy       19585020                       # Energy for read commands per rank (pJ)
system.mem_ctrls.dram.rank0.writeEnergy             0                       # Energy for write commands per rank (pJ)
system.mem_ctrls.dram.rank0.refreshEnergy 9515241840.000002                       # Energy for refresh commands per rank (pJ)
system.mem_ctrls.dram.rank0.actBackEnergy   2835109320                       # Energy for active background per rank (pJ)
system.mem_ctrls.dram.rank0.preBackEnergy  43902109920                       # Energy for precharge background per rank (pJ)
system.mem_ctrls.dram.rank0.actPowerDownEnergy            0                       # Energy for active power-down per rank (pJ)
system.mem_ctrls.dram.rank0.prePowerDownEnergy            0                       # Energy for precharge power-down per rank (pJ)
system.mem_ctrls.dram.rank0.selfRefreshEnergy            0                       # Energy for self refresh per rank (pJ)
system.mem_ctrls.dram.rank0.totalEnergy   56280936255                       # Total energy per rank (pJ)
system.mem_ctrls.dram.rank0.averagePower   466.884427                       # Core power per rank (mW)
system.mem_ctrls.dram.rank0.totalIdleTime            0                       # Total Idle time Per DRAM Rank
system.mem_ctrls.dram.rank0.pwrStateTime::IDLE 114108949250                       # Time in different power states
system.mem_ctrls.dram.rank0.pwrStateTime::REF   4025060000                       # Time in different power states
system.mem_ctrls.dram.rank0.pwrStateTime::SREF            0                       # Time in different power states
system.mem_ctrls.dram.rank0.pwrStateTime::PRE_PDN            0                       # Time in different power states
system.mem_ctrls.dram.rank0.pwrStateTime::ACT   2411746750                       # Time in different power states
system.mem_ctrls.dram.rank0.pwrStateTime::ACT_PDN            0                       # Time in different power states
system.mem_ctrls.dram.rank1.actEnergy         5312160                       # Energy for activate commands per rank (pJ)
system.mem_ctrls.dram.rank1.preEnergy         2823480                       # Energy for precharge commands per rank (pJ)
system.mem_ctrls.dram.rank1.readEnergy       19684980                       # Energy for read commands per rank (pJ)
system.mem_ctrls.dram.rank1.writeEnergy             0                       # Energy for write commands per rank (pJ)
system.mem_ctrls.dram.rank1.refreshEnergy 9515241840.000002                       # Energy for refresh commands per rank (pJ)
system.mem_ctrls.dram.rank1.actBackEnergy   2750352030                       # Energy for active background per rank (pJ)
system.mem_ctrls.dram.rank1.preBackEnergy  43973484480                       # Energy for precharge background per rank (pJ)
system.mem_ctrls.dram.rank1.actPowerDownEnergy            0                       # Energy for active power-down per rank (pJ)
system.mem_ctrls.dram.rank1.prePowerDownEnergy            0                       # Energy for precharge power-down per rank (pJ)
system.mem_ctrls.dram.rank1.selfRefreshEnergy            0                       # Energy for self refresh per rank (pJ)
system.mem_ctrls.dram.rank1.totalEnergy   56266898970                       # Total energy per rank (pJ)
system.mem_ctrls.dram.rank1.averagePower   466.767980                       # Core power per rank (mW)
system.mem_ctrls.dram.rank1.totalIdleTime            0                       # Total Idle time Per DRAM Rank
system.mem_ctrls.dram.rank1.pwrStateTime::IDLE 114295212250                       # Time in different power states
system.mem_ctrls.dram.rank1.pwrStateTime::REF   4025060000                       # Time in different power states
system.mem_ctrls.dram.rank1.pwrStateTime::SREF            0                       # Time in different power states
system.mem_ctrls.dram.rank1.pwrStateTime::PRE_PDN            0                       # Time in different power states
system.mem_ctrls.dram.rank1.pwrStateTime::ACT   2225483750                       # Time in different power states
system.mem_ctrls.dram.rank1.pwrStateTime::ACT_PDN            0                       # Time in different power states
system.mem_ctrls.power_state.pwrStateResidencyTicks::UNDEFINED 120545756000                       # Cumulative time (in ticks) in various power states
system.membus.trans_dist::ReadResp               1835                       # Transaction distribution
system.membus.trans_dist::CleanEvict              107                       # Transaction distribution
system.membus.trans_dist::ReadExReq              3665                       # Transaction distribution
system.membus.trans_dist::ReadExResp             3665                       # Transaction distribution
system.membus.trans_dist::ReadSharedReq          1835                       # Transaction distribution
system.membus.pkt_count_system.l2.mem_side_port::system.mem_ctrls.port        11107                       # Packet count per connected requestor and responder (bytes)
system.membus.pkt_count::total                  11107                       # Packet count per connected requestor and responder (bytes)
system.membus.pkt_size_system.l2.mem_side_port::system.mem_ctrls.port       352000                       # Cumulative packet size per connected requestor and responder (bytes)
system.membus.pkt_size::total                  352000                       # Cumulative packet size per connected requestor and responder (bytes)
system.membus.snoops                                0                       # Total snoops (count)
system.membus.snoopTraffic                          0                       # Total snoop traffic (bytes)
system.membus.snoop_fanout::samples              5500                       # Request fanout histogram
system.membus.snoop_fanout::mean                    0                       # Request fanout histogram
system.membus.snoop_fanout::stdev                   0                       # Request fanout histogram
system.membus.snoop_fanout::underflows              0      0.00%      0.00% # Request fanout histogram
system.membus.snoop_fanout::0                    5500    100.00%    100.00% # Request fanout histogram
system.membus.snoop_fanout::1                       0      0.00%    100.00% # Request fanout histogram
system.membus.snoop_fanout::overflows               0      0.00%    100.00% # Request fanout histogram
system.membus.snoop_fanout::min_value               0                       # Request fanout histogram
system.membus.snoop_fanout::max_value               0                       # Request fanout histogram
system.membus.snoop_fanout::total                5500                       # Request fanout histogram
system.membus.power_state.pwrStateResidencyTicks::UNDEFINED 120545756000                       # Cumulative time (in ticks) in various power states
system.membus.reqLayer0.occupancy             5607000                       # Layer occupancy (ticks)
system.membus.reqLayer0.utilization               0.0                       # Layer utilization (%)
system.membus.respLayer1.occupancy           29248000                       # Layer occupancy (ticks)
system.membus.respLayer1.utilization              0.0                       # Layer utilization (%)
system.tol2bus.trans_dist::ReadResp             75247                       # Transaction distribution
system.tol2bus.trans_dist::WritebackDirty       122770                       # Transaction distribution
system.tol2bus.trans_dist::WritebackClean         6184                       # Transaction distribution
system.tol2bus.trans_dist::CleanEvict            2718                       # Transaction distribution
system.tol2bus.trans_dist::ReadExReq            57992                       # Transaction distribution
system.tol2bus.trans_dist::ReadExResp           57992                       # Transaction distribution
system.tol2bus.trans_dist::ReadCleanReq          6999                       # Transaction distribution
system.tol2bus.trans_dist::ReadSharedReq        68248                       # Transaction distribution
system.tol2bus.pkt_count_system.cpu.icache.mem_side_port::system.l2.cpu_side_port        20182                       # Packet count per connected requestor and responder (bytes)
system.tol2bus.pkt_count_system.cpu.dcache.mem_side_port::system.l2.cpu_side_port       377696                       # Packet count per connected requestor and responder (bytes)
system.tol2bus.pkt_count::total                397878                       # Packet count per connected requestor and responder (bytes)
system.tol2bus.pkt_size_system.cpu.icache.mem_side_port::system.l2.cpu_side_port       843712                       # Cumulative packet size per connected requestor and responder (bytes)
system.tol2bus.pkt_size_system.cpu.dcache.mem_side_port::system.l2.cpu_side_port     15936640                       # Cumulative packet size per connected requestor and responder (bytes)
system.tol2bus.pkt_size::total               16780352                       # Cumulative packet size per connected requestor and responder (bytes)
system.tol2bus.snoops                             272                       # Total snoops (count)
system.tol2bus.snoopTraffic                         0                       # Total snoop traffic (bytes)
system.tol2bus.snoop_fanout::samples           133511                       # Request fanout histogram
system.tol2bus.snoop_fanout::mean            0.013901                       # Request fanout histogram
system.tol2bus.snoop_fanout::stdev           0.117338                       # Request fanout histogram
system.tol2bus.snoop_fanout::underflows             0      0.00%      0.00% # Request fanout histogram
system.tol2bus.snoop_fanout::0                 131659     98.61%     98.61% # Request fanout histogram
system.tol2bus.snoop_fanout::1                   1848      1.38%    100.00% # Request fanout histogram
system.tol2bus.snoop_fanout::2                      4      0.00%    100.00% # Request fanout histogram
system.tol2bus.snoop_fanout::overflows              0      0.00%    100.00% # Request fanout histogram
system.tol2bus.snoop_fanout::min_value              0                       # Request fanout histogram
system.tol2bus.snoop_fanout::max_value              2                       # Request fanout histogram
system.tol2bus.snoop_fanout::total             133511                       # Request fanout histogram
system.tol2bus.power_state.pwrStateResidencyTicks::UNDEFINED 120545756000                       # Cumulative time (in ticks) in various power states
system.tol2bus.reqLayer0.occupancy          522547000                       # Layer occupancy (ticks)
system.tol2bus.reqLayer0.utilization              0.4                       # Layer utilization (%)
system.tol2bus.respLayer0.occupancy          20999997                       # Layer occupancy (ticks)
system.tol2bus.respLayer0.utilization             0.0                       # Layer utilization (%)
system.tol2bus.respLayer1.occupancy         378725994                       # Layer occupancy (ticks)
system.tol2bus.respLayer1.utilization             0.3                       # Layer utilization (%)
system.voltage_domain.voltage                       1                       # Voltage in Volts

---------- End Simulation Statistics   ----------
