
---------- Begin Simulation Statistics ----------
final_tick                               111412095000                       # Number of ticks from beginning of simulation (restored from checkpoints and never reset)
host_inst_rate                                 388400                       # Simulator instruction rate (inst/s)
host_mem_usage                                 659072                       # Number of bytes of host memory used
host_op_rate                                   425033                       # Simulator op (including micro ops) rate (op/s)
host_seconds                                   257.47                       # Real time elapsed on the host
host_tick_rate                              432724526                       # Simulator tick rate (ticks/s)
sim_freq                                 1000000000000                       # Frequency of simulated ticks
sim_insts                                   100000000                       # Number of instructions simulated
sim_ops                                     109431833                       # Number of ops (including micro ops) simulated
sim_seconds                                  0.111412                       # Number of seconds simulated
sim_ticks                                111412095000                       # Number of ticks simulated
system.cpu.committedInsts                   100000000                       # Number of instructions committed
system.cpu.committedOps                     109431833                       # Number of ops (including micro ops) committed
system.cpu.cpi                               1.114121                       # CPI: cycles per instruction
system.cpu.discardedOps                        704615                       # Number of ops (including micro ops) which were discarded before commit
system.cpu.idleCycles                         3173977                       # Total number of cycles that the object has spent stopped
system.cpu.ipc                               0.897569                       # IPC: instructions per cycle
system.cpu.numCycles                        111412095                       # number of cpu cycles simulated
system.cpu.numFetchSuspends                         0                       # Number of times Execute suspended instruction fetching
system.cpu.numWorkItemsCompleted                    0                       # number of work items this cpu completed
system.cpu.numWorkItemsStarted                      0                       # number of work items this cpu started
system.cpu.op_class_0::No_OpClass                   0      0.00%      0.00% # Class of committed instruction
system.cpu.op_class_0::IntAlu                72954902     66.67%     66.67% # Class of committed instruction
system.cpu.op_class_0::IntMult                 568365      0.52%     67.19% # Class of committed instruction
system.cpu.op_class_0::IntDiv                       0      0.00%     67.19% # Class of committed instruction
system.cpu.op_class_0::FloatAdd                     0      0.00%     67.19% # Class of committed instruction
system.cpu.op_class_0::FloatCmp                     0      0.00%     67.19% # Class of committed instruction
system.cpu.op_class_0::FloatCvt                     0      0.00%     67.19% # Class of committed instruction
system.cpu.op_class_0::FloatMult                    0      0.00%     67.19% # Class of committed instruction
system.cpu.op_class_0::FloatMultAcc                 0      0.00%     67.19% # Class of committed instruction
system.cpu.op_class_0::FloatDiv                     0      0.00%     67.19% # Class of committed instruction
system.cpu.op_class_0::FloatMisc                    0      0.00%     67.19% # Class of committed instruction
system.cpu.op_class_0::FloatSqrt                    0      0.00%     67.19% # Class of committed instruction
system.cpu.op_class_0::SimdAdd                 241244      0.22%     67.41% # Class of committed instruction
system.cpu.op_class_0::SimdAddAcc                   0      0.00%     67.41% # Class of committed instruction
system.cpu.op_class_0::SimdAlu                 154714      0.14%     67.55% # Class of committed instruction
system.cpu.op_class_0::SimdCmp                 120622      0.11%     67.66% # Class of committed instruction
system.cpu.op_class_0::SimdCvt                      0      0.00%     67.66% # Class of committed instruction
system.cpu.op_class_0::SimdMisc                 44543      0.04%     67.70% # Class of committed instruction
system.cpu.op_class_0::SimdMult                     0      0.00%     67.70% # Class of committed instruction
system.cpu.op_class_0::SimdMultAcc                  0      0.00%     67.70% # Class of committed instruction
system.cpu.op_class_0::SimdShift                    0      0.00%     67.70% # Class of committed instruction
system.cpu.op_class_0::SimdShiftAcc                 0      0.00%     67.70% # Class of committed instruction
system.cpu.op_class_0::SimdDiv                      0      0.00%     67.70% # Class of committed instruction
system.cpu.op_class_0::SimdSqrt                     0      0.00%     67.70% # Class of committed instruction
system.cpu.op_class_0::SimdFloatAdd                 0      0.00%     67.70% # Class of committed instruction
system.cpu.op_class_0::SimdFloatAlu                 0      0.00%     67.70% # Class of committed instruction
system.cpu.op_class_0::SimdFloatCmp                 0      0.00%     67.70% # Class of committed instruction
system.cpu.op_class_0::SimdFloatCvt                 0      0.00%     67.70% # Class of committed instruction
system.cpu.op_class_0::SimdFloatDiv                 0      0.00%     67.70% # Class of committed instruction
system.cpu.op_class_0::SimdFloatMisc           166460      0.15%     67.85% # Class of committed instruction
system.cpu.op_class_0::SimdFloatMult                0      0.00%     67.85% # Class of committed instruction
system.cpu.op_class_0::SimdFloatMultAcc             0      0.00%     67.85% # Class of committed instruction
system.cpu.op_class_0::SimdFloatSqrt                0      0.00%     67.85% # Class of committed instruction
system.cpu.op_class_0::SimdReduceAdd                0      0.00%     67.85% # Class of committed instruction
system.cpu.op_class_0::SimdReduceAlu                0      0.00%     67.85% # Class of committed instruction
system.cpu.op_class_0::SimdReduceCmp                0      0.00%     67.85% # Class of committed instruction
system.cpu.op_class_0::SimdFloatReduceAdd            0      0.00%     67.85% # Class of committed instruction
system.cpu.op_class_0::SimdFloatReduceCmp            0      0.00%     67.85% # Class of committed instruction
system.cpu.op_class_0::SimdAes                      0      0.00%     67.85% # Class of committed instruction
system.cpu.op_class_0::SimdAesMix                   0      0.00%     67.85% # Class of committed instruction
system.cpu.op_class_0::SimdSha1Hash                 0      0.00%     67.85% # Class of committed instruction
system.cpu.op_class_0::SimdSha1Hash2                0      0.00%     67.85% # Class of committed instruction
system.cpu.op_class_0::SimdSha256Hash               0      0.00%     67.85% # Class of committed instruction
system.cpu.op_class_0::SimdSha256Hash2              0      0.00%     67.85% # Class of committed instruction
system.cpu.op_class_0::SimdShaSigma2                0      0.00%     67.85% # Class of committed instruction
system.cpu.op_class_0::SimdShaSigma3                0      0.00%     67.85% # Class of committed instruction
system.cpu.op_class_0::SimdPredAlu                  0      0.00%     67.85% # Class of committed instruction
system.cpu.op_class_0::MemRead               20646336     18.87%     86.72% # Class of committed instruction
system.cpu.op_class_0::MemWrite              14534647     13.28%    100.00% # Class of committed instruction
system.cpu.op_class_0::FloatMemRead                 0      0.00%    100.00% # Class of committed instruction
system.cpu.op_class_0::FloatMemWrite                0      0.00%    100.00% # Class of committed instruction
system.cpu.op_class_0::IprAccess                    0      0.00%    100.00% # Class of committed instruction
system.cpu.op_class_0::InstPrefetch                 0      0.00%    100.00% # Class of committed instruction
system.cpu.op_class_0::total                109431833                       # Class of committed instruction
system.cpu.tickCycles                       108238118                       # Number of cycles that the object actually ticked
system.cpu.workload.numSyscalls                    86                       # Number of system calls
system.membus.snoop_filter.hit_multi_requests            0                       # Number of requests hitting in the snoop filter with multiple (>1) holders of the requested data.
system.membus.snoop_filter.hit_multi_snoops            0                       # Number of snoops hitting in the snoop filter with multiple (>1) holders of the requested data.
system.membus.snoop_filter.hit_single_requests        14533                       # Number of requests hitting in the snoop filter with a single holder of the requested data.
system.membus.snoop_filter.hit_single_snoops            0                       # Number of snoops hitting in the snoop filter with a single holder of the requested data.
system.membus.snoop_filter.tot_requests         31249                       # Total number of requests made to the snoop filter.
system.membus.snoop_filter.tot_snoops               0                       # Total number of snoops made to the snoop filter.
system.tol2bus.snoop_filter.hit_multi_requests          678                       # Number of requests hitting in the snoop filter with multiple (>1) holders of the requested data.
system.tol2bus.snoop_filter.hit_multi_snoops           50                       # Number of snoops hitting in the snoop filter with multiple (>1) holders of the requested data.
system.tol2bus.snoop_filter.hit_single_requests        36213                       # Number of requests hitting in the snoop filter with a single holder of the requested data.
system.tol2bus.snoop_filter.hit_single_snoops         1651                       # Number of snoops hitting in the snoop filter with a single holder of the requested data.
system.tol2bus.snoop_filter.tot_requests        72711                       # Total number of requests made to the snoop filter.
system.tol2bus.snoop_filter.tot_snoops           1701                       # Total number of snoops made to the snoop filter.
system.clk_domain.clock                          1000                       # Clock period in ticks
system.cpu.branchPred.lookups                20730867                       # Number of BP lookups
system.cpu.branchPred.condPredicted          16623277                       # Number of conditional branches predicted
system.cpu.branchPred.condIncorrect            151032                       # Number of conditional branches incorrect
system.cpu.branchPred.BTBLookups              8825049                       # Number of BTB lookups
system.cpu.branchPred.BTBHits                 8734355                       # Number of BTB hits
system.cpu.branchPred.BTBHitPct             98.972312                       # BTB Hit Percentage
system.cpu.branchPred.RASUsed                 1050576                       # Number of times the RAS was used to get a target.
system.cpu.branchPred.RASIncorrect                320                       # Number of incorrect RAS predictions.
system.cpu.branchPred.indirectLookups          434086                       # Number of indirect predictor lookups.
system.cpu.branchPred.indirectHits             300032                       # Number of indirect target hits.
system.cpu.branchPred.indirectMisses           134054                       # Number of indirect misses.
system.cpu.branchPred.indirectMispredicted         1163                       # Number of mispredicted indirect branches.
system.cpu.dcache.demand_hits::.cpu.data     35464708                       # number of demand (read+write) hits
system.cpu.dcache.demand_hits::total         35464708                       # number of demand (read+write) hits
system.cpu.dcache.overall_hits::.cpu.data     35468072                       # number of overall hits
system.cpu.dcache.overall_hits::total        35468072                       # number of overall hits
system.cpu.dcache.demand_misses::.cpu.data        41915                       # number of demand (read+write) misses
system.cpu.dcache.demand_misses::total          41915                       # number of demand (read+write) misses
system.cpu.dcache.overall_misses::.cpu.data        41924                       # number of overall misses
system.cpu.dcache.overall_misses::total         41924                       # number of overall misses
system.cpu.dcache.demand_miss_latency::.cpu.data   3137608000                       # number of demand (read+write) miss cycles
system.cpu.dcache.demand_miss_latency::total   3137608000                       # number of demand (read+write) miss cycles
system.cpu.dcache.overall_miss_latency::.cpu.data   3137608000                       # number of overall miss cycles
system.cpu.dcache.overall_miss_latency::total   3137608000                       # number of overall miss cycles
system.cpu.dcache.demand_accesses::.cpu.data     35506623                       # number of demand (read+write) accesses
system.cpu.dcache.demand_accesses::total     35506623                       # number of demand (read+write) accesses
system.cpu.dcache.overall_accesses::.cpu.data     35509996                       # number of overall (read+write) accesses
system.cpu.dcache.overall_accesses::total     35509996                       # number of overall (read+write) accesses
system.cpu.dcache.demand_miss_rate::.cpu.data     0.001180                       # miss rate for demand accesses
system.cpu.dcache.demand_miss_rate::total     0.001180                       # miss rate for demand accesses
system.cpu.dcache.overall_miss_rate::.cpu.data     0.001181                       # miss rate for overall accesses
system.cpu.dcache.overall_miss_rate::total     0.001181                       # miss rate for overall accesses
system.cpu.dcache.demand_avg_miss_latency::.cpu.data 74856.447572                       # average overall miss latency
system.cpu.dcache.demand_avg_miss_latency::total 74856.447572                       # average overall miss latency
system.cpu.dcache.overall_avg_miss_latency::.cpu.data 74840.377827                       # average overall miss latency
system.cpu.dcache.overall_avg_miss_latency::total 74840.377827                       # average overall miss latency
system.cpu.dcache.blocked_cycles::no_mshrs            0                       # number of cycles access was blocked
system.cpu.dcache.blocked_cycles::no_targets            0                       # number of cycles access was blocked
system.cpu.dcache.blocked::no_mshrs                 0                       # number of cycles access was blocked
system.cpu.dcache.blocked::no_targets               0                       # number of cycles access was blocked
system.cpu.dcache.avg_blocked_cycles::no_mshrs          nan                       # average number of cycles each access was blocked
system.cpu.dcache.avg_blocked_cycles::no_targets          nan                       # average number of cycles each access was blocked
system.cpu.dcache.writebacks::.writebacks        32083                       # number of writebacks
system.cpu.dcache.writebacks::total             32083                       # number of writebacks
system.cpu.dcache.demand_mshr_hits::.cpu.data         6286                       # number of demand (read+write) MSHR hits
system.cpu.dcache.demand_mshr_hits::total         6286                       # number of demand (read+write) MSHR hits
system.cpu.dcache.overall_mshr_hits::.cpu.data         6286                       # number of overall MSHR hits
system.cpu.dcache.overall_mshr_hits::total         6286                       # number of overall MSHR hits
system.cpu.dcache.demand_mshr_misses::.cpu.data        35629                       # number of demand (read+write) MSHR misses
system.cpu.dcache.demand_mshr_misses::total        35629                       # number of demand (read+write) MSHR misses
system.cpu.dcache.overall_mshr_misses::.cpu.data        35634                       # number of overall MSHR misses
system.cpu.dcache.overall_mshr_misses::total        35634                       # number of overall MSHR misses
system.cpu.dcache.demand_mshr_miss_latency::.cpu.data   2551802000                       # number of demand (read+write) MSHR miss cycles
system.cpu.dcache.demand_mshr_miss_latency::total   2551802000                       # number of demand (read+write) MSHR miss cycles
system.cpu.dcache.overall_mshr_miss_latency::.cpu.data   2552452000                       # number of overall MSHR miss cycles
system.cpu.dcache.overall_mshr_miss_latency::total   2552452000                       # number of overall MSHR miss cycles
system.cpu.dcache.demand_mshr_miss_rate::.cpu.data     0.001003                       # mshr miss rate for demand accesses
system.cpu.dcache.demand_mshr_miss_rate::total     0.001003                       # mshr miss rate for demand accesses
system.cpu.dcache.overall_mshr_miss_rate::.cpu.data     0.001003                       # mshr miss rate for overall accesses
system.cpu.dcache.overall_mshr_miss_rate::total     0.001003                       # mshr miss rate for overall accesses
system.cpu.dcache.demand_avg_mshr_miss_latency::.cpu.data 71621.488114                       # average overall mshr miss latency
system.cpu.dcache.demand_avg_mshr_miss_latency::total 71621.488114                       # average overall mshr miss latency
system.cpu.dcache.overall_avg_mshr_miss_latency::.cpu.data 71629.679520                       # average overall mshr miss latency
system.cpu.dcache.overall_avg_mshr_miss_latency::total 71629.679520                       # average overall mshr miss latency
system.cpu.dcache.replacements                  35506                       # number of replacements
system.cpu.dcache.ReadReq_hits::.cpu.data     21224343                       # number of ReadReq hits
system.cpu.dcache.ReadReq_hits::total        21224343                       # number of ReadReq hits
system.cpu.dcache.ReadReq_misses::.cpu.data        27697                       # number of ReadReq misses
system.cpu.dcache.ReadReq_misses::total         27697                       # number of ReadReq misses
system.cpu.dcache.ReadReq_miss_latency::.cpu.data   1469660000                       # number of ReadReq miss cycles
system.cpu.dcache.ReadReq_miss_latency::total   1469660000                       # number of ReadReq miss cycles
system.cpu.dcache.ReadReq_accesses::.cpu.data     21252040                       # number of ReadReq accesses(hits+misses)
system.cpu.dcache.ReadReq_accesses::total     21252040                       # number of ReadReq accesses(hits+misses)
system.cpu.dcache.ReadReq_miss_rate::.cpu.data     0.001303                       # miss rate for ReadReq accesses
system.cpu.dcache.ReadReq_miss_rate::total     0.001303                       # miss rate for ReadReq accesses
system.cpu.dcache.ReadReq_avg_miss_latency::.cpu.data 53062.064484                       # average ReadReq miss latency
system.cpu.dcache.ReadReq_avg_miss_latency::total 53062.064484                       # average ReadReq miss latency
system.cpu.dcache.ReadReq_mshr_hits::.cpu.data         1969                       # number of ReadReq MSHR hits
system.cpu.dcache.ReadReq_mshr_hits::total         1969                       # number of ReadReq MSHR hits
system.cpu.dcache.ReadReq_mshr_misses::.cpu.data        25728                       # number of ReadReq MSHR misses
system.cpu.dcache.ReadReq_mshr_misses::total        25728                       # number of ReadReq MSHR misses
system.cpu.dcache.ReadReq_mshr_miss_latency::.cpu.data   1322792000                       # number of ReadReq MSHR miss cycles
system.cpu.dcache.ReadReq_mshr_miss_latency::total   1322792000                       # number of ReadReq MSHR miss cycles
system.cpu.dcache.ReadReq_mshr_miss_rate::.cpu.data     0.001211                       # mshr miss rate for ReadReq accesses
system.cpu.dcache.ReadReq_mshr_miss_rate::total     0.001211                       # mshr miss rate for ReadReq accesses
system.cpu.dcache.ReadReq_avg_mshr_miss_latency::.cpu.data 51414.490050                       # average ReadReq mshr miss latency
system.cpu.dcache.ReadReq_avg_mshr_miss_latency::total 51414.490050                       # average ReadReq mshr miss latency
system.cpu.dcache.WriteReq_hits::.cpu.data     14240365                       # number of WriteReq hits
system.cpu.dcache.WriteReq_hits::total       14240365                       # number of WriteReq hits
system.cpu.dcache.WriteReq_misses::.cpu.data        14218                       # number of WriteReq misses
system.cpu.dcache.WriteReq_misses::total        14218                       # number of WriteReq misses
system.cpu.dcache.WriteReq_miss_latency::.cpu.data   1667948000                       # number of WriteReq miss cycles
system.cpu.dcache.WriteReq_miss_latency::total   1667948000                       # number of WriteReq miss cycles
system.cpu.dcache.WriteReq_accesses::.cpu.data     14254583                       # number of WriteReq accesses(hits+misses)
system.cpu.dcache.WriteReq_accesses::total     14254583                       # number of WriteReq accesses(hits+misses)
system.cpu.dcache.WriteReq_miss_rate::.cpu.data     0.000997                       # miss rate for WriteReq accesses
system.cpu.dcache.WriteReq_miss_rate::total     0.000997                       # miss rate for WriteReq accesses
system.cpu.dcache.WriteReq_avg_miss_latency::.cpu.data 117312.420875                       # average WriteReq miss latency
system.cpu.dcache.WriteReq_avg_miss_latency::total 117312.420875                       # average WriteReq miss latency
system.cpu.dcache.WriteReq_mshr_hits::.cpu.data         4317                       # number of WriteReq MSHR hits
system.cpu.dcache.WriteReq_mshr_hits::total         4317                       # number of WriteReq MSHR hits
system.cpu.dcache.WriteReq_mshr_misses::.cpu.data         9901                       # number of WriteReq MSHR misses
system.cpu.dcache.WriteReq_mshr_misses::total         9901                       # number of WriteReq MSHR misses
system.cpu.dcache.WriteReq_mshr_miss_latency::.cpu.data   1229010000                       # number of WriteReq MSHR miss cycles
system.cpu.dcache.WriteReq_mshr_miss_latency::total   1229010000                       # number of WriteReq MSHR miss cycles
system.cpu.dcache.WriteReq_mshr_miss_rate::.cpu.data     0.000695                       # mshr miss rate for WriteReq accesses
system.cpu.dcache.WriteReq_mshr_miss_rate::total     0.000695                       # mshr miss rate for WriteReq accesses
system.cpu.dcache.WriteReq_avg_mshr_miss_latency::.cpu.data 124129.885870                       # average WriteReq mshr miss latency
system.cpu.dcache.WriteReq_avg_mshr_miss_latency::total 124129.885870                       # average WriteReq mshr miss latency
system.cpu.dcache.SoftPFReq_hits::.cpu.data         3364                       # number of SoftPFReq hits
system.cpu.dcache.SoftPFReq_hits::total          3364                       # number of SoftPFReq hits
system.cpu.dcache.SoftPFReq_misses::.cpu.data            9                       # number of SoftPFReq misses
system.cpu.dcache.SoftPFReq_misses::total            9                       # number of SoftPFReq misses
system.cpu.dcache.SoftPFReq_accesses::.cpu.data         3373                       # number of SoftPFReq accesses(hits+misses)
system.cpu.dcache.SoftPFReq_accesses::total         3373                       # number of SoftPFReq accesses(hits+misses)
system.cpu.dcache.SoftPFReq_miss_rate::.cpu.data     0.002668                       # miss rate for SoftPFReq accesses
system.cpu.dcache.SoftPFReq_miss_rate::total     0.002668                       # miss rate for SoftPFReq accesses
system.cpu.dcache.SoftPFReq_mshr_misses::.cpu.data            5                       # number of SoftPFReq MSHR misses
system.cpu.dcache.SoftPFReq_mshr_misses::total            5                       # number of SoftPFReq MSHR misses
system.cpu.dcache.SoftPFReq_mshr_miss_latency::.cpu.data       650000                       # number of SoftPFReq MSHR miss cycles
system.cpu.dcache.SoftPFReq_mshr_miss_latency::total       650000                       # number of SoftPFReq MSHR miss cycles
system.cpu.dcache.SoftPFReq_mshr_miss_rate::.cpu.data     0.001482                       # mshr miss rate for SoftPFReq accesses
system.cpu.dcache.SoftPFReq_mshr_miss_rate::total     0.001482                       # mshr miss rate for SoftPFReq accesses
system.cpu.dcache.SoftPFReq_avg_mshr_miss_latency::.cpu.data       130000                       # average SoftPFReq mshr miss latency
system.cpu.dcache.SoftPFReq_avg_mshr_miss_latency::total       130000                       # average SoftPFReq mshr miss latency
system.cpu.dcache.LoadLockedReq_hits::.cpu.data        89081                       # number of LoadLockedReq hits
system.cpu.dcache.LoadLockedReq_hits::total        89081                       # number of LoadLockedReq hits
system.cpu.dcache.LoadLockedReq_accesses::.cpu.data        89081                       # number of LoadLockedReq accesses(hits+misses)
system.cpu.dcache.LoadLockedReq_accesses::total        89081                       # number of LoadLockedReq accesses(hits+misses)
system.cpu.dcache.StoreCondReq_hits::.cpu.data        89080                       # number of StoreCondReq hits
system.cpu.dcache.StoreCondReq_hits::total        89080                       # number of StoreCondReq hits
system.cpu.dcache.StoreCondReq_accesses::.cpu.data        89080                       # number of StoreCondReq accesses(hits+misses)
system.cpu.dcache.StoreCondReq_accesses::total        89080                       # number of StoreCondReq accesses(hits+misses)
system.cpu.dcache.power_state.pwrStateResidencyTicks::UNDEFINED 111412095000                       # Cumulative time (in ticks) in various power states
system.cpu.dcache.tags.tagsinuse           127.923399                       # Cycle average of tags in use
system.cpu.dcache.tags.total_refs            35681867                       # Total number of references to valid blocks.
system.cpu.dcache.tags.sampled_refs             35634                       # Sample count of references to valid blocks.
system.cpu.dcache.tags.avg_refs           1001.343296                       # Average number of references to valid blocks.
system.cpu.dcache.tags.warmup_cycle            285000                       # Cycle when the warmup percentage was hit.
system.cpu.dcache.tags.occ_blocks::.cpu.data   127.923399                       # Average occupied blocks per requestor
system.cpu.dcache.tags.occ_percent::.cpu.data     0.999402                       # Average percentage of cache occupancy
system.cpu.dcache.tags.occ_percent::total     0.999402                       # Average percentage of cache occupancy
system.cpu.dcache.tags.occ_task_id_blocks::1024          128                       # Occupied blocks per task id
system.cpu.dcache.tags.age_task_id_blocks_1024::0            2                       # Occupied blocks per task id
system.cpu.dcache.tags.age_task_id_blocks_1024::1           25                       # Occupied blocks per task id
system.cpu.dcache.tags.age_task_id_blocks_1024::2           77                       # Occupied blocks per task id
system.cpu.dcache.tags.age_task_id_blocks_1024::3            3                       # Occupied blocks per task id
system.cpu.dcache.tags.age_task_id_blocks_1024::4           21                       # Occupied blocks per task id
system.cpu.dcache.tags.occ_task_id_percent::1024            1                       # Percentage of cache occupancy per task id
system.cpu.dcache.tags.tag_accesses         142788262                       # Number of tag accesses
system.cpu.dcache.tags.data_accesses        142788262                       # Number of data accesses
system.cpu.dcache.tags.power_state.pwrStateResidencyTicks::UNDEFINED 111412095000                       # Cumulative time (in ticks) in various power states
system.cpu.dtb.instHits                             0                       # ITB inst hits
system.cpu.dtb.instMisses                           0                       # ITB inst misses
system.cpu.dtb.readHits                             0                       # DTB read hits
system.cpu.dtb.readMisses                           0                       # DTB read misses
system.cpu.dtb.writeHits                            0                       # DTB write hits
system.cpu.dtb.writeMisses                          0                       # DTB write misses
system.cpu.dtb.inserts                              0                       # Number of times an entry is inserted into the TLB
system.cpu.dtb.flushTlb                             0                       # Number of times complete TLB was flushed
system.cpu.dtb.flushTlbMva                          0                       # Number of times TLB was flushed by MVA
system.cpu.dtb.flushTlbMvaAsid                      0                       # Number of times TLB was flushed by MVA & ASID
system.cpu.dtb.flushTlbAsid                         0                       # Number of times TLB was flushed by ASID
system.cpu.dtb.flushedEntries                       0                       # Number of entries that have been flushed from TLB
system.cpu.dtb.alignFaults                          0                       # Number of TLB faults due to alignment restrictions
system.cpu.dtb.prefetchFaults                       0                       # Number of TLB faults due to prefetch
system.cpu.dtb.domainFaults                         0                       # Number of TLB faults due to domain restrictions
system.cpu.dtb.permsFaults                          0                       # Number of TLB faults due to permissions restrictions
system.cpu.dtb.readAccesses                         0                       # DTB read accesses
system.cpu.dtb.writeAccesses                        0                       # DTB write accesses
system.cpu.dtb.instAccesses                         0                       # ITB inst accesses
system.cpu.dtb.hits                                 0                       # Total TLB (inst and data) hits
system.cpu.dtb.misses                               0                       # Total TLB (inst and data) misses
system.cpu.dtb.accesses                             0                       # Total TLB (inst and data) accesses
system.cpu.dtb.stage2_mmu.stage2_tlb.instHits            0                       # ITB inst hits
system.cpu.dtb.stage2_mmu.stage2_tlb.instMisses            0                       # ITB inst misses
system.cpu.dtb.stage2_mmu.stage2_tlb.readHits            0                       # DTB read hits
system.cpu.dtb.stage2_mmu.stage2_tlb.readMisses            0                       # DTB read misses
system.cpu.dtb.stage2_mmu.stage2_tlb.writeHits            0                       # DTB write hits
system.cpu.dtb.stage2_mmu.stage2_tlb.writeMisses            0                       # DTB write misses
system.cpu.dtb.stage2_mmu.stage2_tlb.inserts            0                       # Number of times an entry is inserted into the TLB
system.cpu.dtb.stage2_mmu.stage2_tlb.flushTlb            0                       # Number of times complete TLB was flushed
system.cpu.dtb.stage2_mmu.stage2_tlb.flushTlbMva            0                       # Number of times TLB was flushed by MVA
system.cpu.dtb.stage2_mmu.stage2_tlb.flushTlbMvaAsid            0                       # Number of times TLB was flushed by MVA & ASID
system.cpu.dtb.stage2_mmu.stage2_tlb.flushTlbAsid            0                       # Number of times TLB was flushed by ASID
system.cpu.dtb.stage2_mmu.stage2_tlb.flushedEntries            0                       # Number of entries that have been flushed from TLB
system.cpu.dtb.stage2_mmu.stage2_tlb.alignFaults            0                       # Number of TLB faults due to alignment restrictions
system.cpu.dtb.stage2_mmu.stage2_tlb.prefetchFaults            0                       # Number of TLB faults due to prefetch
system.cpu.dtb.stage2_mmu.stage2_tlb.domainFaults            0                       # Number of TLB faults due to domain restrictions
system.cpu.dtb.stage2_mmu.stage2_tlb.permsFaults            0                       # Number of TLB faults due to permissions restrictions
system.cpu.dtb.stage2_mmu.stage2_tlb.readAccesses            0                       # DTB read accesses
system.cpu.dtb.stage2_mmu.stage2_tlb.writeAccesses            0                       # DTB write accesses
system.cpu.dtb.stage2_mmu.stage2_tlb.instAccesses            0                       # ITB inst accesses
system.cpu.dtb.stage2_mmu.stage2_tlb.hits            0                       # Total TLB (inst and data) hits
system.cpu.dtb.stage2_mmu.stage2_tlb.misses            0                       # Total TLB (inst and data) misses
system.cpu.dtb.stage2_mmu.stage2_tlb.accesses            0                       # Total TLB (inst and data) accesses
system.cpu.dtb.stage2_mmu.stage2_tlb.walker.walks            0                       # Table walker walks requested
system.cpu.dtb.stage2_mmu.stage2_tlb.walker.requestOrigin_Requested::Data            0                       # Table walker requests started/completed, data/inst
system.cpu.dtb.stage2_mmu.stage2_tlb.walker.requestOrigin_Requested::Inst            0                       # Table walker requests started/completed, data/inst
system.cpu.dtb.stage2_mmu.stage2_tlb.walker.requestOrigin_Requested::total            0                       # Table walker requests started/completed, data/inst
system.cpu.dtb.stage2_mmu.stage2_tlb.walker.requestOrigin_Completed::Data            0                       # Table walker requests started/completed, data/inst
system.cpu.dtb.stage2_mmu.stage2_tlb.walker.requestOrigin_Completed::Inst            0                       # Table walker requests started/completed, data/inst
system.cpu.dtb.stage2_mmu.stage2_tlb.walker.requestOrigin_Completed::total            0                       # Table walker requests started/completed, data/inst
system.cpu.dtb.stage2_mmu.stage2_tlb.walker.requestOrigin::total            0                       # Table walker requests started/completed, data/inst
system.cpu.dtb.stage2_mmu.stage2_tlb.walker.power_state.pwrStateResidencyTicks::UNDEFINED 111412095000                       # Cumulative time (in ticks) in various power states
system.cpu.dtb.walker.walks                         0                       # Table walker walks requested
system.cpu.dtb.walker.requestOrigin_Requested::Data            0                       # Table walker requests started/completed, data/inst
system.cpu.dtb.walker.requestOrigin_Requested::Inst            0                       # Table walker requests started/completed, data/inst
system.cpu.dtb.walker.requestOrigin_Requested::total            0                       # Table walker requests started/completed, data/inst
system.cpu.dtb.walker.requestOrigin_Completed::Data            0                       # Table walker requests started/completed, data/inst
system.cpu.dtb.walker.requestOrigin_Completed::Inst            0                       # Table walker requests started/completed, data/inst
system.cpu.dtb.walker.requestOrigin_Completed::total            0                       # Table walker requests started/completed, data/inst
system.cpu.dtb.walker.requestOrigin::total            0                       # Table walker requests started/completed, data/inst
system.cpu.dtb.walker.power_state.pwrStateResidencyTicks::UNDEFINED 111412095000                       # Cumulative time (in ticks) in various power states
system.cpu.fetch2.intInstructions            49906514                       # Number of integer instructions successfully decoded
system.cpu.fetch2.fpInstructions                    0                       # Number of floating point instructions successfully decoded
system.cpu.fetch2.vecInstructions                   0                       # Number of SIMD instructions successfully decoded
system.cpu.fetch2.loadInstructions           17251570                       # Number of memory load instructions successfully decoded
system.cpu.fetch2.storeInstructions          10044065                       # Number of memory store instructions successfully decoded
system.cpu.fetch2.amoInstructions                   0                       # Number of memory atomic instructions successfully decoded
system.cpu.icache.demand_hits::.cpu.inst     26263562                       # number of demand (read+write) hits
system.cpu.icache.demand_hits::total         26263562                       # number of demand (read+write) hits
system.cpu.icache.overall_hits::.cpu.inst     26263562                       # number of overall hits
system.cpu.icache.overall_hits::total        26263562                       # number of overall hits
system.cpu.icache.demand_misses::.cpu.inst          870                       # number of demand (read+write) misses
system.cpu.icache.demand_misses::total            870                       # number of demand (read+write) misses
system.cpu.icache.overall_misses::.cpu.inst          870                       # number of overall misses
system.cpu.icache.overall_misses::total           870                       # number of overall misses
system.cpu.icache.demand_miss_latency::.cpu.inst     51852000                       # number of demand (read+write) miss cycles
system.cpu.icache.demand_miss_latency::total     51852000                       # number of demand (read+write) miss cycles
system.cpu.icache.overall_miss_latency::.cpu.inst     51852000                       # number of overall miss cycles
system.cpu.icache.overall_miss_latency::total     51852000                       # number of overall miss cycles
system.cpu.icache.demand_accesses::.cpu.inst     26264432                       # number of demand (read+write) accesses
system.cpu.icache.demand_accesses::total     26264432                       # number of demand (read+write) accesses
system.cpu.icache.overall_accesses::.cpu.inst     26264432                       # number of overall (read+write) accesses
system.cpu.icache.overall_accesses::total     26264432                       # number of overall (read+write) accesses
system.cpu.icache.demand_miss_rate::.cpu.inst     0.000033                       # miss rate for demand accesses
system.cpu.icache.demand_miss_rate::total     0.000033                       # miss rate for demand accesses
system.cpu.icache.overall_miss_rate::.cpu.inst     0.000033                       # miss rate for overall accesses
system.cpu.icache.overall_miss_rate::total     0.000033                       # miss rate for overall accesses
system.cpu.icache.demand_avg_miss_latency::.cpu.inst        59600                       # average overall miss latency
system.cpu.icache.demand_avg_miss_latency::total        59600                       # average overall miss latency
system.cpu.icache.overall_avg_miss_latency::.cpu.inst        59600                       # average overall miss latency
system.cpu.icache.overall_avg_miss_latency::total        59600                       # average overall miss latency
system.cpu.icache.blocked_cycles::no_mshrs            0                       # number of cycles access was blocked
system.cpu.icache.blocked_cycles::no_targets            0                       # number of cycles access was blocked
system.cpu.icache.blocked::no_mshrs                 0                       # number of cycles access was blocked
system.cpu.icache.blocked::no_targets               0                       # number of cycles access was blocked
system.cpu.icache.avg_blocked_cycles::no_mshrs          nan                       # average number of cycles each access was blocked
system.cpu.icache.avg_blocked_cycles::no_targets          nan                       # average number of cycles each access was blocked
system.cpu.icache.writebacks::.writebacks          701                       # number of writebacks
system.cpu.icache.writebacks::total               701                       # number of writebacks
system.cpu.icache.demand_mshr_misses::.cpu.inst          870                       # number of demand (read+write) MSHR misses
system.cpu.icache.demand_mshr_misses::total          870                       # number of demand (read+write) MSHR misses
system.cpu.icache.overall_mshr_misses::.cpu.inst          870                       # number of overall MSHR misses
system.cpu.icache.overall_mshr_misses::total          870                       # number of overall MSHR misses
system.cpu.icache.demand_mshr_miss_latency::.cpu.inst     50112000                       # number of demand (read+write) MSHR miss cycles
system.cpu.icache.demand_mshr_miss_latency::total     50112000                       # number of demand (read+write) MSHR miss cycles
system.cpu.icache.overall_mshr_miss_latency::.cpu.inst     50112000                       # number of overall MSHR miss cycles
system.cpu.icache.overall_mshr_miss_latency::total     50112000                       # number of overall MSHR miss cycles
system.cpu.icache.demand_mshr_miss_rate::.cpu.inst     0.000033                       # mshr miss rate for demand accesses
system.cpu.icache.demand_mshr_miss_rate::total     0.000033                       # mshr miss rate for demand accesses
system.cpu.icache.overall_mshr_miss_rate::.cpu.inst     0.000033                       # mshr miss rate for overall accesses
system.cpu.icache.overall_mshr_miss_rate::total     0.000033                       # mshr miss rate for overall accesses
system.cpu.icache.demand_avg_mshr_miss_latency::.cpu.inst        57600                       # average overall mshr miss latency
system.cpu.icache.demand_avg_mshr_miss_latency::total        57600                       # average overall mshr miss latency
system.cpu.icache.overall_avg_mshr_miss_latency::.cpu.inst        57600                       # average overall mshr miss latency
system.cpu.icache.overall_avg_mshr_miss_latency::total        57600                       # average overall mshr miss latency
system.cpu.icache.replacements                    701                       # number of replacements
system.cpu.icache.ReadReq_hits::.cpu.inst     26263562                       # number of ReadReq hits
system.cpu.icache.ReadReq_hits::total        26263562                       # number of ReadReq hits
system.cpu.icache.ReadReq_misses::.cpu.inst          870                       # number of ReadReq misses
system.cpu.icache.ReadReq_misses::total           870                       # number of ReadReq misses
system.cpu.icache.ReadReq_miss_latency::.cpu.inst     51852000                       # number of ReadReq miss cycles
system.cpu.icache.ReadReq_miss_latency::total     51852000                       # number of ReadReq miss cycles
system.cpu.icache.ReadReq_accesses::.cpu.inst     26264432                       # number of ReadReq accesses(hits+misses)
system.cpu.icache.ReadReq_accesses::total     26264432                       # number of ReadReq accesses(hits+misses)
system.cpu.icache.ReadReq_miss_rate::.cpu.inst     0.000033                       # miss rate for ReadReq accesses
system.cpu.icache.ReadReq_miss_rate::total     0.000033                       # miss rate for ReadReq accesses
system.cpu.icache.ReadReq_avg_miss_latency::.cpu.inst        59600                       # average ReadReq miss latency
system.cpu.icache.ReadReq_avg_miss_latency::total        59600                       # average ReadReq miss latency
system.cpu.icache.ReadReq_mshr_misses::.cpu.inst          870                       # number of ReadReq MSHR misses
system.cpu.icache.ReadReq_mshr_misses::total          870                       # number of ReadReq MSHR misses
system.cpu.icache.ReadReq_mshr_miss_latency::.cpu.inst     50112000                       # number of ReadReq MSHR miss cycles
system.cpu.icache.ReadReq_mshr_miss_latency::total     50112000                       # number of ReadReq MSHR miss cycles
system.cpu.icache.ReadReq_mshr_miss_rate::.cpu.inst     0.000033                       # mshr miss rate for ReadReq accesses
system.cpu.icache.ReadReq_mshr_miss_rate::total     0.000033                       # mshr miss rate for ReadReq accesses
system.cpu.icache.ReadReq_avg_mshr_miss_latency::.cpu.inst        57600                       # average ReadReq mshr miss latency
system.cpu.icache.ReadReq_avg_mshr_miss_latency::total        57600                       # average ReadReq mshr miss latency
system.cpu.icache.power_state.pwrStateResidencyTicks::UNDEFINED 111412095000                       # Cumulative time (in ticks) in various power states
system.cpu.icache.tags.tagsinuse           168.964138                       # Cycle average of tags in use
system.cpu.icache.tags.total_refs            26264432                       # Total number of references to valid blocks.
system.cpu.icache.tags.sampled_refs               870                       # Sample count of references to valid blocks.
system.cpu.icache.tags.avg_refs          30189.002299                       # Average number of references to valid blocks.
system.cpu.icache.tags.warmup_cycle            123000                       # Cycle when the warmup percentage was hit.
system.cpu.icache.tags.occ_blocks::.cpu.inst   168.964138                       # Average occupied blocks per requestor
system.cpu.icache.tags.occ_percent::.cpu.inst     0.660016                       # Average percentage of cache occupancy
system.cpu.icache.tags.occ_percent::total     0.660016                       # Average percentage of cache occupancy
system.cpu.icache.tags.occ_task_id_blocks::1024          169                       # Occupied blocks per task id
system.cpu.icache.tags.age_task_id_blocks_1024::3            5                       # Occupied blocks per task id
system.cpu.icache.tags.age_task_id_blocks_1024::4          164                       # Occupied blocks per task id
system.cpu.icache.tags.occ_task_id_percent::1024     0.660156                       # Percentage of cache occupancy per task id
system.cpu.icache.tags.tag_accesses          26265302                       # Number of tag accesses
system.cpu.icache.tags.data_accesses         26265302                       # Number of data accesses
system.cpu.icache.tags.power_state.pwrStateResidencyTicks::UNDEFINED 111412095000                       # Cumulative time (in ticks) in various power states
system.cpu.itb.instHits                             0                       # ITB inst hits
system.cpu.itb.instMisses                           0                       # ITB inst misses
system.cpu.itb.readHits                             0                       # DTB read hits
system.cpu.itb.readMisses                           0                       # DTB read misses
system.cpu.itb.writeHits                            0                       # DTB write hits
system.cpu.itb.writeMisses                          0                       # DTB write misses
system.cpu.itb.inserts                              0                       # Number of times an entry is inserted into the TLB
system.cpu.itb.flushTlb                             0                       # Number of times complete TLB was flushed
system.cpu.itb.flushTlbMva                          0                       # Number of times TLB was flushed by MVA
system.cpu.itb.flushTlbMvaAsid                      0                       # Number of times TLB was flushed by MVA & ASID
system.cpu.itb.flushTlbAsid                         0                       # Number of times TLB was flushed by ASID
system.cpu.itb.flushedEntries                       0                       # Number of entries that have been flushed from TLB
system.cpu.itb.alignFaults                          0                       # Number of TLB faults due to alignment restrictions
system.cpu.itb.prefetchFaults                       0                       # Number of TLB faults due to prefetch
system.cpu.itb.domainFaults                         0                       # Number of TLB faults due to domain restrictions
system.cpu.itb.permsFaults                          0                       # Number of TLB faults due to permissions restrictions
system.cpu.itb.readAccesses                         0                       # DTB read accesses
system.cpu.itb.writeAccesses                        0                       # DTB write accesses
system.cpu.itb.instAccesses                         0                       # ITB inst accesses
system.cpu.itb.hits                                 0                       # Total TLB (inst and data) hits
system.cpu.itb.misses                               0                       # Total TLB (inst and data) misses
system.cpu.itb.accesses                             0                       # Total TLB (inst and data) accesses
system.cpu.itb.stage2_mmu.stage2_tlb.instHits            0                       # ITB inst hits
system.cpu.itb.stage2_mmu.stage2_tlb.instMisses            0                       # ITB inst misses
system.cpu.itb.stage2_mmu.stage2_tlb.readHits            0                       # DTB read hits
system.cpu.itb.stage2_mmu.stage2_tlb.readMisses            0                       # DTB read misses
system.cpu.itb.stage2_mmu.stage2_tlb.writeHits            0                       # DTB write hits
system.cpu.itb.stage2_mmu.stage2_tlb.writeMisses            0                       # DTB write misses
system.cpu.itb.stage2_mmu.stage2_tlb.inserts            0                       # Number of times an entry is inserted into the TLB
system.cpu.itb.stage2_mmu.stage2_tlb.flushTlb            0                       # Number of times complete TLB was flushed
system.cpu.itb.stage2_mmu.stage2_tlb.flushTlbMva            0                       # Number of times TLB was flushed by MVA
system.cpu.itb.stage2_mmu.stage2_tlb.flushTlbMvaAsid            0                       # Number of times TLB was flushed by MVA & ASID
system.cpu.itb.stage2_mmu.stage2_tlb.flushTlbAsid            0                       # Number of times TLB was flushed by ASID
system.cpu.itb.stage2_mmu.stage2_tlb.flushedEntries            0                       # Number of entries that have been flushed from TLB
system.cpu.itb.stage2_mmu.stage2_tlb.alignFaults            0                       # Number of TLB faults due to alignment restrictions
system.cpu.itb.stage2_mmu.stage2_tlb.prefetchFaults            0                       # Number of TLB faults due to prefetch
system.cpu.itb.stage2_mmu.stage2_tlb.domainFaults            0                       # Number of TLB faults due to domain restrictions
system.cpu.itb.stage2_mmu.stage2_tlb.permsFaults            0                       # Number of TLB faults due to permissions restrictions
system.cpu.itb.stage2_mmu.stage2_tlb.readAccesses            0                       # DTB read accesses
system.cpu.itb.stage2_mmu.stage2_tlb.writeAccesses            0                       # DTB write accesses
system.cpu.itb.stage2_mmu.stage2_tlb.instAccesses            0                       # ITB inst accesses
system.cpu.itb.stage2_mmu.stage2_tlb.hits            0                       # Total TLB (inst and data) hits
system.cpu.itb.stage2_mmu.stage2_tlb.misses            0                       # Total TLB (inst and data) misses
system.cpu.itb.stage2_mmu.stage2_tlb.accesses            0                       # Total TLB (inst and data) accesses
system.cpu.itb.stage2_mmu.stage2_tlb.walker.walks            0                       # Table walker walks requested
system.cpu.itb.stage2_mmu.stage2_tlb.walker.requestOrigin_Requested::Data            0                       # Table walker requests started/completed, data/inst
system.cpu.itb.stage2_mmu.stage2_tlb.walker.requestOrigin_Requested::Inst            0                       # Table walker requests started/completed, data/inst
system.cpu.itb.stage2_mmu.stage2_tlb.walker.requestOrigin_Requested::total            0                       # Table walker requests started/completed, data/inst
system.cpu.itb.stage2_mmu.stage2_tlb.walker.requestOrigin_Completed::Data            0                       # Table walker requests started/completed, data/inst
system.cpu.itb.stage2_mmu.stage2_tlb.walker.requestOrigin_Completed::Inst            0                       # Table walker requests started/completed, data/inst
system.cpu.itb.stage2_mmu.stage2_tlb.walker.requestOrigin_Completed::total            0                       # Table walker requests started/completed, data/inst
system.cpu.itb.stage2_mmu.stage2_tlb.walker.requestOrigin::total            0                       # Table walker requests started/completed, data/inst
system.cpu.itb.stage2_mmu.stage2_tlb.walker.power_state.pwrStateResidencyTicks::UNDEFINED 111412095000                       # Cumulative time (in ticks) in various power states
system.cpu.itb.walker.walks                         0                       # Table walker walks requested
system.cpu.itb.walker.requestOrigin_Requested::Data            0                       # Table walker requests started/completed, data/inst
system.cpu.itb.walker.requestOrigin_Requested::Inst            0                       # Table walker requests started/completed, data/inst
system.cpu.itb.walker.requestOrigin_Requested::total            0                       # Table walker requests started/completed, data/inst
system.cpu.itb.walker.requestOrigin_Completed::Data            0                       # Table walker requests started/completed, data/inst
system.cpu.itb.walker.requestOrigin_Completed::Inst            0                       # Table walker requests started/completed, data/inst
system.cpu.itb.walker.requestOrigin_Completed::total            0                       # Table walker requests started/completed, data/inst
system.cpu.itb.walker.requestOrigin::total            0                       # Table walker requests started/completed, data/inst
system.cpu.itb.walker.power_state.pwrStateResidencyTicks::UNDEFINED 111412095000                       # Cumulative time (in ticks) in various power states
system.cpu.power_state.pwrStateResidencyTicks::ON 111412095000                       # Cumulative time (in ticks) in various power states
system.cpu.thread_0.numInsts                100000000                       # Number of Instructions committed
system.cpu.thread_0.numOps                  109431833                       # Number of Ops committed
system.cpu.thread_0.numMemRefs                      0                       # Number of Memory References
system.cpu_clk_domain.clock                      1000                       # Clock period in ticks
system.cpu_voltage_domain.voltage                   1                       # Voltage in Volts
system.l2.demand_hits::.cpu.inst                  580                       # number of demand (read+write) hits
system.l2.demand_hits::.cpu.data                19155                       # number of demand (read+write) hits
system.l2.demand_hits::total                    19735                       # number of demand (read+write) hits
system.l2.overall_hits::.cpu.inst                 580                       # number of overall hits
system.l2.overall_hits::.cpu.data               19155                       # number of overall hits
system.l2.overall_hits::total                   19735                       # number of overall hits
system.l2.demand_misses::.cpu.inst                290                       # number of demand (read+write) misses
system.l2.demand_misses::.cpu.data              16479                       # number of demand (read+write) misses
system.l2.demand_misses::total                  16769                       # number of demand (read+write) misses
system.l2.overall_misses::.cpu.inst               290                       # number of overall misses
system.l2.overall_misses::.cpu.data             16479                       # number of overall misses
system.l2.overall_misses::total                 16769                       # number of overall misses
system.l2.demand_miss_latency::.cpu.inst     34311000                       # number of demand (read+write) miss cycles
system.l2.demand_miss_latency::.cpu.data   2042000000                       # number of demand (read+write) miss cycles
system.l2.demand_miss_latency::total       2076311000                       # number of demand (read+write) miss cycles
system.l2.overall_miss_latency::.cpu.inst     34311000                       # number of overall miss cycles
system.l2.overall_miss_latency::.cpu.data   2042000000                       # number of overall miss cycles
system.l2.overall_miss_latency::total      2076311000                       # number of overall miss cycles
system.l2.demand_accesses::.cpu.inst              870                       # number of demand (read+write) accesses
system.l2.demand_accesses::.cpu.data            35634                       # number of demand (read+write) accesses
system.l2.demand_accesses::total                36504                       # number of demand (read+write) accesses
system.l2.overall_accesses::.cpu.inst             870                       # number of overall (read+write) accesses
system.l2.overall_accesses::.cpu.data           35634                       # number of overall (read+write) accesses
system.l2.overall_accesses::total               36504                       # number of overall (read+write) accesses
system.l2.demand_miss_rate::.cpu.inst        0.333333                       # miss rate for demand accesses
system.l2.demand_miss_rate::.cpu.data        0.462452                       # miss rate for demand accesses
system.l2.demand_miss_rate::total            0.459374                       # miss rate for demand accesses
system.l2.overall_miss_rate::.cpu.inst       0.333333                       # miss rate for overall accesses
system.l2.overall_miss_rate::.cpu.data       0.462452                       # miss rate for overall accesses
system.l2.overall_miss_rate::total           0.459374                       # miss rate for overall accesses
system.l2.demand_avg_miss_latency::.cpu.inst 118313.793103                       # average overall miss latency
system.l2.demand_avg_miss_latency::.cpu.data 123915.286122                       # average overall miss latency
system.l2.demand_avg_miss_latency::total 123818.414932                       # average overall miss latency
system.l2.overall_avg_miss_latency::.cpu.inst 118313.793103                       # average overall miss latency
system.l2.overall_avg_miss_latency::.cpu.data 123915.286122                       # average overall miss latency
system.l2.overall_avg_miss_latency::total 123818.414932                       # average overall miss latency
system.l2.blocked_cycles::no_mshrs                  0                       # number of cycles access was blocked
system.l2.blocked_cycles::no_targets                0                       # number of cycles access was blocked
system.l2.blocked::no_mshrs                         0                       # number of cycles access was blocked
system.l2.blocked::no_targets                       0                       # number of cycles access was blocked
system.l2.avg_blocked_cycles::no_mshrs            nan                       # average number of cycles each access was blocked
system.l2.avg_blocked_cycles::no_targets          nan                       # average number of cycles each access was blocked
system.l2.writebacks::.writebacks               13992                       # number of writebacks
system.l2.writebacks::total                     13992                       # number of writebacks
system.l2.demand_mshr_hits::.cpu.data               5                       # number of demand (read+write) MSHR hits
system.l2.demand_mshr_hits::total                   5                       # number of demand (read+write) MSHR hits
system.l2.overall_mshr_hits::.cpu.data              5                       # number of overall MSHR hits
system.l2.overall_mshr_hits::total                  5                       # number of overall MSHR hits
system.l2.demand_mshr_misses::.cpu.inst           290                       # number of demand (read+write) MSHR misses
system.l2.demand_mshr_misses::.cpu.data         16474                       # number of demand (read+write) MSHR misses
system.l2.demand_mshr_misses::total             16764                       # number of demand (read+write) MSHR misses
system.l2.overall_mshr_misses::.cpu.inst          290                       # number of overall MSHR misses
system.l2.overall_mshr_misses::.cpu.data        16474                       # number of overall MSHR misses
system.l2.overall_mshr_misses::total            16764                       # number of overall MSHR misses
system.l2.demand_mshr_miss_latency::.cpu.inst     28511000                       # number of demand (read+write) MSHR miss cycles
system.l2.demand_mshr_miss_latency::.cpu.data   1711980000                       # number of demand (read+write) MSHR miss cycles
system.l2.demand_mshr_miss_latency::total   1740491000                       # number of demand (read+write) MSHR miss cycles
system.l2.overall_mshr_miss_latency::.cpu.inst     28511000                       # number of overall MSHR miss cycles
system.l2.overall_mshr_miss_latency::.cpu.data   1711980000                       # number of overall MSHR miss cycles
system.l2.overall_mshr_miss_latency::total   1740491000                       # number of overall MSHR miss cycles
system.l2.demand_mshr_miss_rate::.cpu.inst     0.333333                       # mshr miss rate for demand accesses
system.l2.demand_mshr_miss_rate::.cpu.data     0.462311                       # mshr miss rate for demand accesses
system.l2.demand_mshr_miss_rate::total       0.459237                       # mshr miss rate for demand accesses
system.l2.overall_mshr_miss_rate::.cpu.inst     0.333333                       # mshr miss rate for overall accesses
system.l2.overall_mshr_miss_rate::.cpu.data     0.462311                       # mshr miss rate for overall accesses
system.l2.overall_mshr_miss_rate::total      0.459237                       # mshr miss rate for overall accesses
system.l2.demand_avg_mshr_miss_latency::.cpu.inst 98313.793103                       # average overall mshr miss latency
system.l2.demand_avg_mshr_miss_latency::.cpu.data 103920.116547                       # average overall mshr miss latency
system.l2.demand_avg_mshr_miss_latency::total 103823.132904                       # average overall mshr miss latency
system.l2.overall_avg_mshr_miss_latency::.cpu.inst 98313.793103                       # average overall mshr miss latency
system.l2.overall_avg_mshr_miss_latency::.cpu.data 103920.116547                       # average overall mshr miss latency
system.l2.overall_avg_mshr_miss_latency::total 103823.132904                       # average overall mshr miss latency
system.l2.replacements                          16010                       # number of replacements
system.l2.WritebackDirty_hits::.writebacks        32083                       # number of WritebackDirty hits
system.l2.WritebackDirty_hits::total            32083                       # number of WritebackDirty hits
system.l2.WritebackDirty_accesses::.writebacks        32083                       # number of WritebackDirty accesses(hits+misses)
system.l2.WritebackDirty_accesses::total        32083                       # number of WritebackDirty accesses(hits+misses)
system.l2.WritebackClean_hits::.writebacks          621                       # number of WritebackClean hits
system.l2.WritebackClean_hits::total              621                       # number of WritebackClean hits
system.l2.WritebackClean_accesses::.writebacks          621                       # number of WritebackClean accesses(hits+misses)
system.l2.WritebackClean_accesses::total          621                       # number of WritebackClean accesses(hits+misses)
system.l2.CleanEvict_mshr_misses::.writebacks          176                       # number of CleanEvict MSHR misses
system.l2.CleanEvict_mshr_misses::total           176                       # number of CleanEvict MSHR misses
system.l2.CleanEvict_mshr_miss_rate::.writebacks          inf                       # mshr miss rate for CleanEvict accesses
system.l2.CleanEvict_mshr_miss_rate::total          inf                       # mshr miss rate for CleanEvict accesses
system.l2.ReadExReq_hits::.cpu.data               185                       # number of ReadExReq hits
system.l2.ReadExReq_hits::total                   185                       # number of ReadExReq hits
system.l2.ReadExReq_misses::.cpu.data            9716                       # number of ReadExReq misses
system.l2.ReadExReq_misses::total                9716                       # number of ReadExReq misses
system.l2.ReadExReq_miss_latency::.cpu.data   1195281000                       # number of ReadExReq miss cycles
system.l2.ReadExReq_miss_latency::total    1195281000                       # number of ReadExReq miss cycles
system.l2.ReadExReq_accesses::.cpu.data          9901                       # number of ReadExReq accesses(hits+misses)
system.l2.ReadExReq_accesses::total              9901                       # number of ReadExReq accesses(hits+misses)
system.l2.ReadExReq_miss_rate::.cpu.data     0.981315                       # miss rate for ReadExReq accesses
system.l2.ReadExReq_miss_rate::total         0.981315                       # miss rate for ReadExReq accesses
system.l2.ReadExReq_avg_miss_latency::.cpu.data 123021.922602                       # average ReadExReq miss latency
system.l2.ReadExReq_avg_miss_latency::total 123021.922602                       # average ReadExReq miss latency
system.l2.ReadExReq_mshr_misses::.cpu.data         9716                       # number of ReadExReq MSHR misses
system.l2.ReadExReq_mshr_misses::total           9716                       # number of ReadExReq MSHR misses
system.l2.ReadExReq_mshr_miss_latency::.cpu.data   1000961000                       # number of ReadExReq MSHR miss cycles
system.l2.ReadExReq_mshr_miss_latency::total   1000961000                       # number of ReadExReq MSHR miss cycles
system.l2.ReadExReq_mshr_miss_rate::.cpu.data     0.981315                       # mshr miss rate for ReadExReq accesses
system.l2.ReadExReq_mshr_miss_rate::total     0.981315                       # mshr miss rate for ReadExReq accesses
system.l2.ReadExReq_avg_mshr_miss_latency::.cpu.data 103021.922602                       # average ReadExReq mshr miss latency
system.l2.ReadExReq_avg_mshr_miss_latency::total 103021.922602                       # average ReadExReq mshr miss latency
system.l2.ReadCleanReq_hits::.cpu.inst            580                       # number of ReadCleanReq hits
system.l2.ReadCleanReq_hits::total                580                       # number of ReadCleanReq hits
system.l2.ReadCleanReq_misses::.cpu.inst          290                       # number of ReadCleanReq misses
system.l2.ReadCleanReq_misses::total              290                       # number of ReadCleanReq misses
system.l2.ReadCleanReq_miss_latency::.cpu.inst     34311000                       # number of ReadCleanReq miss cycles
system.l2.ReadCleanReq_miss_latency::total     34311000                       # number of ReadCleanReq miss cycles
system.l2.ReadCleanReq_accesses::.cpu.inst          870                       # number of ReadCleanReq accesses(hits+misses)
system.l2.ReadCleanReq_accesses::total            870                       # number of ReadCleanReq accesses(hits+misses)
system.l2.ReadCleanReq_miss_rate::.cpu.inst     0.333333                       # miss rate for ReadCleanReq accesses
system.l2.ReadCleanReq_miss_rate::total      0.333333                       # miss rate for ReadCleanReq accesses
system.l2.ReadCleanReq_avg_miss_latency::.cpu.inst 118313.793103                       # average ReadCleanReq miss latency
system.l2.ReadCleanReq_avg_miss_latency::total 118313.793103                       # average ReadCleanReq miss latency
system.l2.ReadCleanReq_mshr_misses::.cpu.inst          290                       # number of ReadCleanReq MSHR misses
system.l2.ReadCleanReq_mshr_misses::total          290                       # number of ReadCleanReq MSHR misses
system.l2.ReadCleanReq_mshr_miss_latency::.cpu.inst     28511000                       # number of ReadCleanReq MSHR miss cycles
system.l2.ReadCleanReq_mshr_miss_latency::total     28511000                       # number of ReadCleanReq MSHR miss cycles
system.l2.ReadCleanReq_mshr_miss_rate::.cpu.inst     0.333333                       # mshr miss rate for ReadCleanReq accesses
system.l2.ReadCleanReq_mshr_miss_rate::total     0.333333                       # mshr miss rate for ReadCleanReq accesses
system.l2.ReadCleanReq_avg_mshr_miss_latency::.cpu.inst 98313.793103                       # average ReadCleanReq mshr miss latency
system.l2.ReadCleanReq_avg_mshr_miss_latency::total 98313.793103                       # average ReadCleanReq mshr miss latency
system.l2.ReadSharedReq_hits::.cpu.data         18970                       # number of ReadSharedReq hits
system.l2.ReadSharedReq_hits::total             18970                       # number of ReadSharedReq hits
system.l2.ReadSharedReq_misses::.cpu.data         6763                       # number of ReadSharedReq misses
system.l2.ReadSharedReq_misses::total            6763                       # number of ReadSharedReq misses
system.l2.ReadSharedReq_miss_latency::.cpu.data    846719000                       # number of ReadSharedReq miss cycles
system.l2.ReadSharedReq_miss_latency::total    846719000                       # number of ReadSharedReq miss cycles
system.l2.ReadSharedReq_accesses::.cpu.data        25733                       # number of ReadSharedReq accesses(hits+misses)
system.l2.ReadSharedReq_accesses::total         25733                       # number of ReadSharedReq accesses(hits+misses)
system.l2.ReadSharedReq_miss_rate::.cpu.data     0.262814                       # miss rate for ReadSharedReq accesses
system.l2.ReadSharedReq_miss_rate::total     0.262814                       # miss rate for ReadSharedReq accesses
system.l2.ReadSharedReq_avg_miss_latency::.cpu.data 125198.728375                       # average ReadSharedReq miss latency
system.l2.ReadSharedReq_avg_miss_latency::total 125198.728375                       # average ReadSharedReq miss latency
system.l2.ReadSharedReq_mshr_hits::.cpu.data            5                       # number of ReadSharedReq MSHR hits
system.l2.ReadSharedReq_mshr_hits::total            5                       # number of ReadSharedReq MSHR hits
system.l2.ReadSharedReq_mshr_misses::.cpu.data         6758                       # number of ReadSharedReq MSHR misses
system.l2.ReadSharedReq_mshr_misses::total         6758                       # number of ReadSharedReq MSHR misses
system.l2.ReadSharedReq_mshr_miss_latency::.cpu.data    711019000                       # number of ReadSharedReq MSHR miss cycles
system.l2.ReadSharedReq_mshr_miss_latency::total    711019000                       # number of ReadSharedReq MSHR miss cycles
system.l2.ReadSharedReq_mshr_miss_rate::.cpu.data     0.262620                       # mshr miss rate for ReadSharedReq accesses
system.l2.ReadSharedReq_mshr_miss_rate::total     0.262620                       # mshr miss rate for ReadSharedReq accesses
system.l2.ReadSharedReq_avg_mshr_miss_latency::.cpu.data 105211.453093                       # average ReadSharedReq mshr miss latency
system.l2.ReadSharedReq_avg_mshr_miss_latency::total 105211.453093                       # average ReadSharedReq mshr miss latency
system.l2.power_state.pwrStateResidencyTicks::UNDEFINED 111412095000                       # Cumulative time (in ticks) in various power states
system.l2.tags.tagsinuse                  2005.641136                       # Cycle average of tags in use
system.l2.tags.total_refs                       71852                       # Total number of references to valid blocks.
system.l2.tags.sampled_refs                     18058                       # Sample count of references to valid blocks.
system.l2.tags.avg_refs                      3.978957                       # Average number of references to valid blocks.
system.l2.tags.warmup_cycle                    102000                       # Cycle when the warmup percentage was hit.
system.l2.tags.occ_blocks::.writebacks      72.583563                       # Average occupied blocks per requestor
system.l2.tags.occ_blocks::.cpu.inst         8.803934                       # Average occupied blocks per requestor
system.l2.tags.occ_blocks::.cpu.data      1924.253638                       # Average occupied blocks per requestor
system.l2.tags.occ_percent::.writebacks      0.035441                       # Average percentage of cache occupancy
system.l2.tags.occ_percent::.cpu.inst        0.004299                       # Average percentage of cache occupancy
system.l2.tags.occ_percent::.cpu.data        0.939577                       # Average percentage of cache occupancy
system.l2.tags.occ_percent::total            0.979317                       # Average percentage of cache occupancy
system.l2.tags.occ_task_id_blocks::1024          2048                       # Occupied blocks per task id
system.l2.tags.age_task_id_blocks_1024::1            7                       # Occupied blocks per task id
system.l2.tags.age_task_id_blocks_1024::2           91                       # Occupied blocks per task id
system.l2.tags.age_task_id_blocks_1024::3          805                       # Occupied blocks per task id
system.l2.tags.age_task_id_blocks_1024::4         1145                       # Occupied blocks per task id
system.l2.tags.occ_task_id_percent::1024            1                       # Percentage of cache occupancy per task id
system.l2.tags.tag_accesses                     90091                       # Number of tag accesses
system.l2.tags.data_accesses                    90091                       # Number of data accesses
system.l2.tags.power_state.pwrStateResidencyTicks::UNDEFINED 111412095000                       # Cumulative time (in ticks) in various power states
system.mem_ctrls.avgPriority_.writebacks::samples     55964.00                       # Average QoS priority value for accepted requests
system.mem_ctrls.avgPriority_.cpu.inst::samples      1160.00                       # Average QoS priority value for accepted requests
system.mem_ctrls.avgPriority_.cpu.data::samples     65692.00                       # Average QoS priority value for accepted requests
system.mem_ctrls.priorityMinLatency      0.000000018750                       # per QoS priority minimum request to response latency (s)
system.mem_ctrls.priorityMaxLatency      0.005196462500                       # per QoS priority maximum request to response latency (s)
system.mem_ctrls.numReadWriteTurnArounds         2774                       # Number of turnarounds from READ to WRITE
system.mem_ctrls.numWriteReadTurnArounds         2774                       # Number of turnarounds from WRITE to READ
system.mem_ctrls.numStayReadState              125635                       # Number of times bus staying in READ state
system.mem_ctrls.numStayWriteState              53222                       # Number of times bus staying in WRITE state
system.mem_ctrls.readReqs                       16764                       # Number of read requests accepted
system.mem_ctrls.writeReqs                      13992                       # Number of write requests accepted
system.mem_ctrls.readBursts                     67056                       # Number of controller read bursts, including those serviced by the write queue
system.mem_ctrls.writeBursts                    55968                       # Number of controller write bursts, including those merged in the write queue
system.mem_ctrls.servicedByWrQ                    204                       # Number of controller read bursts serviced by the write queue
system.mem_ctrls.mergedWrBursts                     4                       # Number of controller write bursts merged with an existing one
system.mem_ctrls.neitherReadNorWriteReqs            0                       # Number of requests that are neither read nor write
system.mem_ctrls.avgRdQLen                       4.18                       # Average read queue length when enqueuing
system.mem_ctrls.avgWrQLen                      26.63                       # Average write queue length when enqueuing
system.mem_ctrls.numRdRetry                         0                       # Number of times read queue was full causing retry
system.mem_ctrls.numWrRetry                         0                       # Number of times write queue was full causing retry
system.mem_ctrls.readPktSize::0                     0                       # Read request sizes (log2)
system.mem_ctrls.readPktSize::1                     0                       # Read request sizes (log2)
system.mem_ctrls.readPktSize::2                     0                       # Read request sizes (log2)
system.mem_ctrls.readPktSize::3                     0                       # Read request sizes (log2)
system.mem_ctrls.readPktSize::4                     0                       # Read request sizes (log2)
system.mem_ctrls.readPktSize::5                     0                       # Read request sizes (log2)
system.mem_ctrls.readPktSize::6                 67056                       # Read request sizes (log2)
system.mem_ctrls.readPktSize::7                     0                       # Read request sizes (log2)
system.mem_ctrls.readPktSize::8                     0                       # Read request sizes (log2)
system.mem_ctrls.writePktSize::0                    0                       # Write request sizes (log2)
system.mem_ctrls.writePktSize::1                    0                       # Write request sizes (log2)
system.mem_ctrls.writePktSize::2                    0                       # Write request sizes (log2)
system.mem_ctrls.writePktSize::3                    0                       # Write request sizes (log2)
system.mem_ctrls.writePktSize::4                    0                       # Write request sizes (log2)
system.mem_ctrls.writePktSize::5                    0                       # Write request sizes (log2)
system.mem_ctrls.writePktSize::6                55968                       # Write request sizes (log2)
system.mem_ctrls.writePktSize::7                    0                       # Write request sizes (log2)
system.mem_ctrls.writePktSize::8                    0                       # Write request sizes (log2)
system.mem_ctrls.rdQLenPdf::0                   15966                       # What read queue length does an incoming req see
system.mem_ctrls.rdQLenPdf::1                   15958                       # What read queue length does an incoming req see
system.mem_ctrls.rdQLenPdf::2                   16232                       # What read queue length does an incoming req see
system.mem_ctrls.rdQLenPdf::3                   16260                       # What read queue length does an incoming req see
[...]
system.mem_ctrls.dram.bw_write::.writebacks     32150477                       # Write bandwidth from this memory (bytes/s)
system.mem_ctrls.dram.bw_write::total        32150477                       # Write bandwidth from this memory (bytes/s)
system.mem_ctrls.dram.bw_total::.writebacks     32150477                       # Total bandwidth to/from this memory (bytes/s)
system.mem_ctrls.dram.bw_total::.cpu.inst       666355                       # Total bandwidth to/from this memory (bytes/s)
system.mem_ctrls.dram.bw_total::.cpu.data     37853556                       # Total bandwidth to/from this memory (bytes/s)
system.mem_ctrls.dram.bw_total::total        70670388                       # Total bandwidth to/from this memory (bytes/s)
system.mem_ctrls.dram.readBursts                66852                       # Number of DRAM read bursts
system.mem_ctrls.dram.writeBursts               55937                       # Number of DRAM write bursts
system.mem_ctrls.dram.perBankRdBursts::0         3876                       # Per bank write bursts
system.mem_ctrls.dram.perBankRdBursts::1         4158                       # Per bank write bursts
system.mem_ctrls.dram.perBankRdBursts::2         4170                       # Per bank write bursts
system.mem_ctrls.dram.perBankRdBursts::3         4436                       # Per bank write bursts
system.mem_ctrls.dram.perBankRdBursts::4         5020                       # Per bank write bursts
system.mem_ctrls.dram.perBankRdBursts::5         3809                       # Per bank write bursts
system.mem_ctrls.dram.perBankRdBursts::6         4037                       # Per bank write bursts
system.mem_ctrls.dram.perBankRdBursts::7         4504                       # Per bank write bursts
system.mem_ctrls.dram.perBankRdBursts::8         4037                       # Per bank write bursts
system.mem_ctrls.dram.perBankRdBursts::9         4288                       # Per bank write bursts
system.mem_ctrls.dram.perBankRdBursts::10         4318                       # Per bank write bursts
system.mem_ctrls.dram.perBankRdBursts::11         3990                       # Per bank write bursts
system.mem_ctrls.dram.perBankRdBursts::12         4276                       # Per bank write bursts
system.mem_ctrls.dram.perBankRdBursts::13         3760                       # Per bank write bursts
system.mem_ctrls.dram.perBankRdBursts::14         4252                       # Per bank write bursts
system.mem_ctrls.dram.perBankRdBursts::15         3921                       # Per bank write bursts
system.mem_ctrls.dram.perBankWrBursts::0         3220                       # Per bank write bursts
system.mem_ctrls.dram.perBankWrBursts::1         3512                       # Per bank write bursts
system.mem_ctrls.dram.perBankWrBursts::2         3496                       # Per bank write bursts
system.mem_ctrls.dram.perBankWrBursts::3         3213                       # Per bank write bursts
system.mem_ctrls.dram.perBankWrBursts::4         3668                       # Per bank write bursts
system.mem_ctrls.dram.perBankWrBursts::5         3308                       # Per bank write bursts
system.mem_ctrls.dram.perBankWrBursts::6         3552                       # Per bank write bursts
system.mem_ctrls.dram.perBankWrBursts::7         3960                       # Per bank write bursts
system.mem_ctrls.dram.perBankWrBursts::8         3424                       # Per bank write bursts
system.mem_ctrls.dram.perBankWrBursts::9         3656                       # Per bank write bursts
system.mem_ctrls.dram.perBankWrBursts::10         3736                       # Per bank write bursts
system.mem_ctrls.dram.perBankWrBursts::11         3380                       # Per bank write bursts
system.mem_ctrls.dram.perBankWrBursts::12         3652                       # Per bank write bursts
system.mem_ctrls.dram.perBankWrBursts::13         3184                       # Per bank write bursts
system.mem_ctrls.dram.perBankWrBursts::14         3624                       # Per bank write bursts
system.mem_ctrls.dram.perBankWrBursts::15         3352                       # Per bank write bursts
system.mem_ctrls.dram.totQLat              1748405750                       # Total ticks spent queuing
system.mem_ctrls.dram.totBusLat             334260000                       # Total ticks spent in databus transfers
system.mem_ctrls.dram.totMemAccLat         3001880750                       # Total ticks spent from burst creation until serviced by the DRAM
system.mem_ctrls.dram.avgQLat                26153.38                       # Average queueing delay per DRAM burst
system.mem_ctrls.dram.avgBusLat               5000.00                       # Average bus latency per DRAM burst
system.mem_ctrls.dram.avgMemAccLat           44903.38                       # Average memory access latency per DRAM burst
system.mem_ctrls.dram.readRowHits               51783                       # Number of row buffer hits during reads
system.mem_ctrls.dram.writeRowHits              45711                       # Number of row buffer hits during writes
system.mem_ctrls.dram.readRowHitRate            77.46                       # Row buffer hit rate for reads
system.mem_ctrls.dram.writeRowHitRate           81.72                       # Row buffer hit rate for writes
system.mem_ctrls.dram.bytesPerActivate::samples        25295                       # Bytes accessed per row activation
system.mem_ctrls.dram.bytesPerActivate::mean   310.673888                       # Bytes accessed per row activation
system.mem_ctrls.dram.bytesPerActivate::gmean   275.374641                       # Bytes accessed per row activation
system.mem_ctrls.dram.bytesPerActivate::stdev   179.988026                       # Bytes accessed per row activation
system.mem_ctrls.dram.bytesPerActivate::0-127         1165      4.61%      4.61% # Bytes accessed per row activation
system.mem_ctrls.dram.bytesPerActivate::128-255          946      3.74%      8.35% # Bytes accessed per row activation
system.mem_ctrls.dram.bytesPerActivate::256-383        19121     75.59%     83.94% # Bytes accessed per row activation
system.mem_ctrls.dram.bytesPerActivate::384-511          308      1.22%     85.16% # Bytes accessed per row activation
system.mem_ctrls.dram.bytesPerActivate::512-639         2121      8.39%     93.54% # Bytes accessed per row activation
system.mem_ctrls.dram.bytesPerActivate::640-767          210      0.83%     94.37% # Bytes accessed per row activation
system.mem_ctrls.dram.bytesPerActivate::768-895          537      2.12%     96.49% # Bytes accessed per row activation
system.mem_ctrls.dram.bytesPerActivate::896-1023          172      0.68%     97.17% # Bytes accessed per row activation
system.mem_ctrls.dram.bytesPerActivate::1024-1151          715      2.83%    100.00% # Bytes accessed per row activation
system.mem_ctrls.dram.bytesPerActivate::total        25295                       # Bytes accessed per row activation
system.mem_ctrls.dram.bytesRead               4278528                       # Total number of bytes read from DRAM
system.mem_ctrls.dram.bytesWritten            3579968                       # Total number of bytes written to DRAM
system.mem_ctrls.dram.avgRdBW               38.402725                       # Average DRAM read bandwidth in MiBytes/s
system.mem_ctrls.dram.avgWrBW               32.132669                       # Average DRAM write bandwidth in MiBytes/s
system.mem_ctrls.dram.peakBW                 12800.00                       # Theoretical peak bandwidth in MiByte/s
system.mem_ctrls.dram.busUtil                    0.55                       # Data bus utilization in percentage
system.mem_ctrls.dram.busUtilRead                0.30                       # Data bus utilization in percentage for reads
system.mem_ctrls.dram.busUtilWrite               0.25                       # Data bus utilization in percentage for writes
system.mem_ctrls.dram.pageHitRate               79.40                       # Row buffer hit rate, read and write combined
system.mem_ctrls.dram.power_state.pwrStateResidencyTicks::UNDEFINED 111412095000                       # Cumulative time (in ticks) in various power states
system.mem_ctrls.dram.rank0.actEnergy        91877520                       # Energy for activate commands per rank (pJ)
system.mem_ctrls.dram.rank0.preEnergy        48834060                       # Energy for precharge commands per rank (pJ)
system.mem_ctrls.dram.rank0.readEnergy      242831400                       # Energy for read commands per rank (pJ)
system.mem_ctrls.dram.rank0.writeEnergy     145789380                       # Energy for write commands per rank (pJ)
system.mem_ctrls.dram.rank0.refreshEnergy 8794269120.000002                       # Energy for refresh commands per rank (pJ)
system.mem_ctrls.dram.rank0.actBackEnergy  14089497120                       # Energy for active background per rank (pJ)
system.mem_ctrls.dram.rank0.preBackEnergy  30917404800                       # Energy for precharge background per rank (pJ)
system.mem_ctrls.dram.rank0.actPowerDownEnergy            0                       # Energy for active power-down per rank (pJ)
system.mem_ctrls.dram.rank0.prePowerDownEnergy            0                       # Energy for precharge power-down per rank (pJ)
system.mem_ctrls.dram.rank0.selfRefreshEnergy            0                       # Energy for self refresh per rank (pJ)
system.mem_ctrls.dram.rank0.totalEnergy   54330503400                       # Total energy per rank (pJ)
system.mem_ctrls.dram.rank0.averagePower   487.653548                       # Core power per rank (mW)
system.mem_ctrls.dram.rank0.totalIdleTime            0                       # Total Idle time Per DRAM Rank
system.mem_ctrls.dram.rank0.pwrStateTime::IDLE  80223185750                       # Time in different power states
system.mem_ctrls.dram.rank0.pwrStateTime::REF   3720080000                       # Time in different power states
system.mem_ctrls.dram.rank0.pwrStateTime::SREF            0                       # Time in different power states
system.mem_ctrls.dram.rank0.pwrStateTime::PRE_PDN            0                       # Time in different power states
system.mem_ctrls.dram.rank0.pwrStateTime::ACT  27468829250                       # Time in different power states
system.mem_ctrls.dram.rank0.pwrStateTime::ACT_PDN            0                       # Time in different power states
system.mem_ctrls.dram.rank1.actEnergy        88728780                       # Energy for activate commands per rank (pJ)
system.mem_ctrls.dram.rank1.preEnergy        47160465                       # Energy for precharge commands per rank (pJ)
system.mem_ctrls.dram.rank1.readEnergy      234491880                       # Energy for read commands per rank (pJ)
system.mem_ctrls.dram.rank1.writeEnergy     146201760                       # Energy for write commands per rank (pJ)
system.mem_ctrls.dram.rank1.refreshEnergy 8794269120.000002                       # Energy for refresh commands per rank (pJ)
system.mem_ctrls.dram.rank1.actBackEnergy  13761070530                       # Energy for active background per rank (pJ)
system.mem_ctrls.dram.rank1.preBackEnergy  31193974560                       # Energy for precharge background per rank (pJ)
system.mem_ctrls.dram.rank1.actPowerDownEnergy            0                       # Energy for active power-down per rank (pJ)
system.mem_ctrls.dram.rank1.prePowerDownEnergy            0                       # Energy for precharge power-down per rank (pJ)
system.mem_ctrls.dram.rank1.selfRefreshEnergy            0                       # Energy for self refresh per rank (pJ)
system.mem_ctrls.dram.rank1.totalEnergy   54265897095                       # Total energy per rank (pJ)
system.mem_ctrls.dram.rank1.averagePower   487.073662                       # Core power per rank (mW)
system.mem_ctrls.dram.rank1.totalIdleTime            0                       # Total Idle time Per DRAM Rank
system.mem_ctrls.dram.rank1.pwrStateTime::IDLE  80945789250                       # Time in different power states
system.mem_ctrls.dram.rank1.pwrStateTime::REF   3720080000                       # Time in different power states
system.mem_ctrls.dram.rank1.pwrStateTime::SREF            0                       # Time in different power states
system.mem_ctrls.dram.rank1.pwrStateTime::PRE_PDN            0                       # Time in different power states
system.mem_ctrls.dram.rank1.pwrStateTime::ACT  26746225750                       # Time in different power states
system.mem_ctrls.dram.rank1.pwrStateTime::ACT_PDN            0                       # Time in different power states
system.mem_ctrls.power_state.pwrStateResidencyTicks::UNDEFINED 111412095000                       # Cumulative time (in ticks) in various power states
system.membus.trans_dist::ReadResp               7048                       # Transaction distribution
system.membus.trans_dist::WritebackDirty        13992                       # Transaction distribution
system.membus.trans_dist::CleanEvict              493                       # Transaction distribution
system.membus.trans_dist::ReadExReq              9716                       # Transaction distribution
system.membus.trans_dist::ReadExResp             9716                       # Transaction distribution
system.membus.trans_dist::ReadSharedReq          7048                       # Transaction distribution
system.membus.pkt_count_system.l2.mem_side_port::system.mem_ctrls.port        48013                       # Packet count per connected requestor and responder (bytes)
system.membus.pkt_count::total                  48013                       # Packet count per connected requestor and responder (bytes)
system.membus.pkt_size_system.l2.mem_side_port::system.mem_ctrls.port      7873536                       # Cumulative packet size per connected requestor and responder (bytes)
system.membus.pkt_size::total                 7873536                       # Cumulative packet size per connected requestor and responder (bytes)
system.membus.snoops                                0                       # Total snoops (count)
system.membus.snoopTraffic                          0                       # Total snoop traffic (bytes)
system.membus.snoop_fanout::samples             16764                       # Request fanout histogram
system.membus.snoop_fanout::mean                    0                       # Request fanout histogram
system.membus.snoop_fanout::stdev                   0                       # Request fanout histogram
system.membus.snoop_fanout::underflows              0      0.00%      0.00% # Request fanout histogram
system.membus.snoop_fanout::0                   16764    100.00%    100.00% # Request fanout histogram
system.membus.snoop_fanout::1                       0      0.00%    100.00% # Request fanout histogram
system.membus.snoop_fanout::overflows               0      0.00%    100.00% # Request fanout histogram
system.membus.snoop_fanout::min_value               0                       # Request fanout histogram
system.membus.snoop_fanout::max_value               0                       # Request fanout histogram
system.membus.snoop_fanout::total               16764                       # Request fanout histogram
system.membus.power_state.pwrStateResidencyTicks::UNDEFINED 111412095000                       # Cumulative time (in ticks) in various power states
system.membus.reqLayer0.occupancy           255121000                       # Layer occupancy (ticks)
system.membus.reqLayer0.utilization               0.2                       # Layer utilization (%)
system.membus.respLayer1.occupancy          292943750                       # Layer occupancy (ticks)
system.membus.respLayer1.utilization              0.3                       # Layer utilization (%)
system.tol2bus.trans_dist::ReadResp             26603                       # Transaction distribution
system.tol2bus.trans_dist::WritebackDirty        46075                       # Transaction distribution
system.tol2bus.trans_dist::WritebackClean          701                       # Transaction distribution
system.tol2bus.trans_dist::CleanEvict            5441                       # Transaction distribution
system.tol2bus.trans_dist::ReadExReq             9901                       # Transaction distribution
system.tol2bus.trans_dist::ReadExResp            9901                       # Transaction distribution
system.tol2bus.trans_dist::ReadCleanReq           870                       # Transaction distribution
system.tol2bus.trans_dist::ReadSharedReq        25733                       # Transaction distribution
system.tol2bus.pkt_count_system.cpu.icache.mem_side_port::system.l2.cpu_side_port         2441                       # Packet count per connected requestor and responder (bytes)
system.tol2bus.pkt_count_system.cpu.dcache.mem_side_port::system.l2.cpu_side_port       106774                       # Packet count per connected requestor and responder (bytes)
system.tol2bus.pkt_count::total                109215                       # Packet count per connected requestor and responder (bytes)
system.tol2bus.pkt_size_system.cpu.icache.mem_side_port::system.l2.cpu_side_port       402176                       # Cumulative packet size per connected requestor and responder (bytes)
system.tol2bus.pkt_size_system.cpu.dcache.mem_side_port::system.l2.cpu_side_port     17335552                       # Cumulative packet size per connected requestor and responder (bytes)
system.tol2bus.pkt_size::total               17737728                       # Cumulative packet size per connected requestor and responder (bytes)
system.tol2bus.snoops                           16010                       # Total snoops (count)
system.tol2bus.snoopTraffic                   3581952                       # Total snoop traffic (bytes)
system.tol2bus.snoop_fanout::samples            52514                       # Request fanout histogram
system.tol2bus.snoop_fanout::mean            0.046369                       # Request fanout histogram
system.tol2bus.snoop_fanout::stdev           0.214764                       # Request fanout histogram
system.tol2bus.snoop_fanout::underflows             0      0.00%      0.00% # Request fanout histogram
system.tol2bus.snoop_fanout::0                  50129     95.46%     95.46% # Request fanout histogram
system.tol2bus.snoop_fanout::1                   2335      4.45%     99.90% # Request fanout histogram
system.tol2bus.snoop_fanout::2                     50      0.10%    100.00% # Request fanout histogram
system.tol2bus.snoop_fanout::overflows              0      0.00%    100.00% # Request fanout histogram
system.tol2bus.snoop_fanout::min_value              0                       # Request fanout histogram
system.tol2bus.snoop_fanout::max_value              2                       # Request fanout histogram
system.tol2bus.snoop_fanout::total              52514                       # Request fanout histogram
system.tol2bus.power_state.pwrStateResidencyTicks::UNDEFINED 111412095000                       # Cumulative time (in ticks) in various power states
system.tol2bus.reqLayer0.occupancy          334983000                       # Layer occupancy (ticks)
system.tol2bus.reqLayer0.utilization              0.3                       # Layer utilization (%)
system.tol2bus.respLayer0.occupancy           7830000                       # Layer occupancy (ticks)
system.tol2bus.respLayer0.utilization             0.0                       # Layer utilization (%)
system.tol2bus.respLayer1.occupancy         320710995                       # Layer occupancy (ticks)
system.tol2bus.respLayer1.utilization             0.3                       # Layer utilization (%)
system.voltage_domain.voltage                       1                       # Voltage in Volts

---------- End Simulation Statistics   ----------
