
---------- Begin Simulation Statistics ----------
final_tick                               118748325000                       # Number of ticks from beginning of simulation (restored from checkpoints and never reset)
host_inst_rate                                 408092                       # Simulator instruction rate (inst/s)
host_mem_usage                                 671184                       # Number of bytes of host memory used
host_op_rate                                   412592                       # Simulator op (including micro ops) rate (op/s)
host_seconds                                   245.04                       # Real time elapsed on the host
host_tick_rate                              484602229                       # Simulator tick rate (ticks/s)
sim_freq                                 1000000000000                       # Frequency of simulated ticks
sim_insts                                   100000000                       # Number of instructions simulated
sim_ops                                     101102842                       # Number of ops (including micro ops) simulated
sim_seconds                                  0.118748                       # Number of seconds simulated
sim_ticks                                118748325000                       # Number of ticks simulated
system.cpu.committedInsts                   100000000                       # Number of instructions committed
system.cpu.committedOps                     101102842                       # Number of ops (including micro ops) committed
system.cpu.cpi                               1.187483                       # CPI: cycles per instruction
system.cpu.discardedOps                        961839                       # Number of ops (including micro ops) which were discarded before commit
system.cpu.idleCycles                         2852568                       # Total number of cycles that the object has spent stopped
system.cpu.ipc                               0.842117                       # IPC: instructions per cycle
system.cpu.numCycles                        118748325                       # number of cpu cycles simulated
system.cpu.numFetchSuspends                         0                       # Number of times Execute suspended instruction fetching
system.cpu.numWorkItemsCompleted                    0                       # number of work items this cpu completed
system.cpu.numWorkItemsStarted                      0                       # number of work items this cpu started
system.cpu.op_class_0::No_OpClass                   0      0.00%      0.00% # Class of committed instruction
system.cpu.op_class_0::IntAlu                55116018     54.51%     54.51% # Class of committed instruction
system.cpu.op_class_0::IntMult                 167845      0.17%     54.68% # Class of committed instruction
system.cpu.op_class_0::IntDiv                       0      0.00%     54.68% # Class of committed instruction
system.cpu.op_class_0::FloatAdd                     0      0.00%     54.68% # Class of committed instruction
system.cpu.op_class_0::FloatCmp                     0      0.00%     54.68% # Class of committed instruction
system.cpu.op_class_0::FloatCvt                     0      0.00%     54.68% # Class of committed instruction
system.cpu.op_class_0::FloatMult                    0      0.00%     54.68% # Class of committed instruction
system.cpu.op_class_0::FloatMultAcc                 0      0.00%     54.68% # Class of committed instruction
system.cpu.op_class_0::FloatDiv                     0      0.00%     54.68% # Class of committed instruction
system.cpu.op_class_0::FloatMisc                    0      0.00%     54.68% # Class of committed instruction
system.cpu.op_class_0::FloatSqrt                    0      0.00%     54.68% # Class of committed instruction
system.cpu.op_class_0::SimdAdd                    376      0.00%     54.68% # Class of committed instruction
system.cpu.op_class_0::SimdAddAcc                   0      0.00%     54.68% # Class of committed instruction
system.cpu.op_class_0::SimdAlu                    466      0.00%     54.68% # Class of committed instruction
system.cpu.op_class_0::SimdCmp                    378      0.00%     54.68% # Class of committed instruction
system.cpu.op_class_0::SimdCvt                      0      0.00%     54.68% # Class of committed instruction
system.cpu.op_class_0::SimdMisc                    53      0.00%     54.68% # Class of committed instruction
system.cpu.op_class_0::SimdMult                     0      0.00%     54.68% # Class of committed instruction
system.cpu.op_class_0::SimdMultAcc                  0      0.00%     54.68% # Class of committed instruction
system.cpu.op_class_0::SimdShift                    0      0.00%     54.68% # Class of committed instruction
system.cpu.op_class_0::SimdShiftAcc                 0      0.00%     54.68% # Class of committed instruction
system.cpu.op_class_0::SimdDiv                      0      0.00%     54.68% # Class of committed instruction
system.cpu.op_class_0::SimdSqrt                     0      0.00%     54.68% # Class of committed instruction
system.cpu.op_class_0::SimdFloatAdd            267609      0.26%     54.95% # Class of committed instruction
system.cpu.op_class_0::SimdFloatAlu                 0      0.00%     54.95% # Class of committed instruction
system.cpu.op_class_0::SimdFloatCmp            259630      0.26%     55.20% # Class of committed instruction
system.cpu.op_class_0::SimdFloatCvt            161456      0.16%     55.36% # Class of committed instruction
system.cpu.op_class_0::SimdFloatDiv             54308      0.05%     55.42% # Class of committed instruction
system.cpu.op_class_0::SimdFloatMisc           483616      0.48%     55.90% # Class of committed instruction
system.cpu.op_class_0::SimdFloatMult            33524      0.03%     55.93% # Class of committed instruction
system.cpu.op_class_0::SimdFloatMultAcc         11115      0.01%     55.94% # Class of committed instruction
system.cpu.op_class_0::SimdFloatSqrt                0      0.00%     55.94% # Class of committed instruction
system.cpu.op_class_0::SimdReduceAdd                0      0.00%     55.94% # Class of committed instruction
system.cpu.op_class_0::SimdReduceAlu                0      0.00%     55.94% # Class of committed instruction
system.cpu.op_class_0::SimdReduceCmp                0      0.00%     55.94% # Class of committed instruction
system.cpu.op_class_0::SimdFloatReduceAdd            0      0.00%     55.94% # Class of committed instruction
system.cpu.op_class_0::SimdFloatReduceCmp            0      0.00%     55.94% # Class of committed instruction
system.cpu.op_class_0::SimdAes                      0      0.00%     55.94% # Class of committed instruction
system.cpu.op_class_0::SimdAesMix                   0      0.00%     55.94% # Class of committed instruction
system.cpu.op_class_0::SimdSha1Hash                 0      0.00%     55.94% # Class of committed instruction
system.cpu.op_class_0::SimdSha1Hash2                0      0.00%     55.94% # Class of committed instruction
system.cpu.op_class_0::SimdSha256Hash               0      0.00%     55.94% # Class of committed instruction
system.cpu.op_class_0::SimdSha256Hash2              0      0.00%     55.94% # Class of committed instruction
system.cpu.op_class_0::SimdShaSigma2                0      0.00%     55.94% # Class of committed instruction
system.cpu.op_class_0::SimdShaSigma3                0      0.00%     55.94% # Class of committed instruction
system.cpu.op_class_0::SimdPredAlu                  0      0.00%     55.94% # Class of committed instruction
system.cpu.op_class_0::MemRead               38167367     37.75%     93.69% # Class of committed instruction
system.cpu.op_class_0::MemWrite               6379081      6.31%    100.00% # Class of committed instruction
system.cpu.op_class_0::FloatMemRead                 0      0.00%    100.00% # Class of committed instruction
system.cpu.op_class_0::FloatMemWrite                0      0.00%    100.00% # Class of committed instruction
system.cpu.op_class_0::IprAccess                    0      0.00%    100.00% # Class of committed instruction
system.cpu.op_class_0::InstPrefetch                 0      0.00%    100.00% # Class of committed instruction
system.cpu.op_class_0::total                101102842                       # Class of committed instruction
system.cpu.tickCycles                       115895757                       # Number of cycles that the object actually ticked
system.cpu.workload.numSyscalls                    32                       # Number of system calls
system.membus.snoop_filter.hit_multi_requests            0                       # Number of requests hitting in the snoop filter with multiple (>1) holders of the requested data.
system.membus.snoop_filter.hit_multi_snoops            0                       # Number of snoops hitting in the snoop filter with multiple (>1) holders of the requested data.
system.membus.snoop_filter.hit_single_requests            0                       # Number of requests hitting in the snoop filter with a single holder of the requested data.
system.membus.snoop_filter.hit_single_snoops            0                       # Number of snoops hitting in the snoop filter with a single holder of the requested data.
system.membus.snoop_filter.tot_requests         10370                       # Total number of requests made to the snoop filter.
system.membus.snoop_filter.tot_snoops               0                       # Total number of snoops made to the snoop filter.
system.tol2bus.snoop_filter.hit_multi_requests          699                       # Number of requests hitting in the snoop filter with multiple (>1) holders of the requested data.
system.tol2bus.snoop_filter.hit_multi_snoops            0                       # Number of snoops hitting in the snoop filter with multiple (>1) holders of the requested data.
system.tol2bus.snoop_filter.hit_single_requests        44640                       # Number of requests hitting in the snoop filter with a single holder of the requested data.
system.tol2bus.snoop_filter.hit_single_snoops            0                       # Number of snoops hitting in the snoop filter with a single holder of the requested data.
system.tol2bus.snoop_filter.tot_requests        94802                       # Total number of requests made to the snoop filter.
system.tol2bus.snoop_filter.tot_snoops              0                       # Total number of snoops made to the snoop filter.
system.clk_domain.clock                          1000                       # Clock period in ticks
system.cpu.branchPred.lookups                 6495583                       # Number of BP lookups
system.cpu.branchPred.condPredicted           5085923                       # Number of conditional branches predicted
system.cpu.branchPred.condIncorrect            349145                       # Number of conditional branches incorrect
system.cpu.branchPred.BTBLookups              4082068                       # Number of BTB lookups
system.cpu.branchPred.BTBHits                 4075284                       # Number of BTB hits
system.cpu.branchPred.BTBHitPct             99.833810                       # BTB Hit Percentage
system.cpu.branchPred.RASUsed                  314980                       # Number of times the RAS was used to get a target.
system.cpu.branchPred.RASIncorrect                  3                       # Number of incorrect RAS predictions.
system.cpu.branchPred.indirectLookups          675628                       # Number of indirect predictor lookups.
system.cpu.branchPred.indirectHits             102897                       # Number of indirect target hits.
system.cpu.branchPred.indirectMisses           572731                       # Number of indirect misses.
system.cpu.branchPred.indirectMispredicted        37436                       # Number of mispredicted indirect branches.
system.cpu.dcache.demand_hits::.cpu.data     43915306                       # number of demand (read+write) hits
system.cpu.dcache.demand_hits::total         43915306                       # number of demand (read+write) hits
system.cpu.dcache.overall_hits::.cpu.data     43923913                       # number of overall hits
system.cpu.dcache.overall_hits::total        43923913                       # number of overall hits
system.cpu.dcache.demand_misses::.cpu.data        48906                       # number of demand (read+write) misses
system.cpu.dcache.demand_misses::total          48906                       # number of demand (read+write) misses
system.cpu.dcache.overall_misses::.cpu.data        49046                       # number of overall misses
system.cpu.dcache.overall_misses::total         49046                       # number of overall misses
system.cpu.dcache.demand_miss_latency::.cpu.data   2181032000                       # number of demand (read+write) miss cycles
system.cpu.dcache.demand_miss_latency::total   2181032000                       # number of demand (read+write) miss cycles
system.cpu.dcache.overall_miss_latency::.cpu.data   2181032000                       # number of overall miss cycles
system.cpu.dcache.overall_miss_latency::total   2181032000                       # number of overall miss cycles
system.cpu.dcache.demand_accesses::.cpu.data     43964212                       # number of demand (read+write) accesses
system.cpu.dcache.demand_accesses::total     43964212                       # number of demand (read+write) accesses
system.cpu.dcache.overall_accesses::.cpu.data     43972959                       # number of overall (read+write) accesses
system.cpu.dcache.overall_accesses::total     43972959                       # number of overall (read+write) accesses
system.cpu.dcache.demand_miss_rate::.cpu.data     0.001112                       # miss rate for demand accesses
system.cpu.dcache.demand_miss_rate::total     0.001112                       # miss rate for demand accesses
system.cpu.dcache.overall_miss_rate::.cpu.data     0.001115                       # miss rate for overall accesses
system.cpu.dcache.overall_miss_rate::total     0.001115                       # miss rate for overall accesses
system.cpu.dcache.demand_avg_miss_latency::.cpu.data 44596.409439                       # average overall miss latency
system.cpu.dcache.demand_avg_miss_latency::total 44596.409439                       # average overall miss latency
system.cpu.dcache.overall_avg_miss_latency::.cpu.data 44469.110631                       # average overall miss latency
system.cpu.dcache.overall_avg_miss_latency::total 44469.110631                       # average overall miss latency
system.cpu.dcache.blocked_cycles::no_mshrs          182                       # number of cycles access was blocked
system.cpu.dcache.blocked_cycles::no_targets            0                       # number of cycles access was blocked
system.cpu.dcache.blocked::no_mshrs                 3                       # number of cycles access was blocked
system.cpu.dcache.blocked::no_targets               0                       # number of cycles access was blocked
system.cpu.dcache.avg_blocked_cycles::no_mshrs    60.666667                       # average number of cycles each access was blocked
system.cpu.dcache.avg_blocked_cycles::no_targets          nan                       # average number of cycles each access was blocked
system.cpu.dcache.writebacks::.writebacks        36381                       # number of writebacks
system.cpu.dcache.writebacks::total             36381                       # number of writebacks
system.cpu.dcache.demand_mshr_hits::.cpu.data         7384                       # number of demand (read+write) MSHR hits
system.cpu.dcache.demand_mshr_hits::total         7384                       # number of demand (read+write) MSHR hits
system.cpu.dcache.overall_mshr_hits::.cpu.data         7384                       # number of overall MSHR hits
system.cpu.dcache.overall_mshr_hits::total         7384                       # number of overall MSHR hits
system.cpu.dcache.demand_mshr_misses::.cpu.data        41522                       # number of demand (read+write) MSHR misses
system.cpu.dcache.demand_mshr_misses::total        41522                       # number of demand (read+write) MSHR misses
system.cpu.dcache.overall_mshr_misses::.cpu.data        41654                       # number of overall MSHR misses
system.cpu.dcache.overall_mshr_misses::total        41654                       # number of overall MSHR misses
system.cpu.dcache.demand_mshr_miss_latency::.cpu.data   1615656000                       # number of demand (read+write) MSHR miss cycles
system.cpu.dcache.demand_mshr_miss_latency::total   1615656000                       # number of demand (read+write) MSHR miss cycles
system.cpu.dcache.overall_mshr_miss_latency::.cpu.data   1628364000                       # number of overall MSHR miss cycles
system.cpu.dcache.overall_mshr_miss_latency::total   1628364000                       # number of overall MSHR miss cycles
system.cpu.dcache.demand_mshr_miss_rate::.cpu.data     0.000944                       # mshr miss rate for demand accesses
system.cpu.dcache.demand_mshr_miss_rate::total     0.000944                       # mshr miss rate for demand accesses
system.cpu.dcache.overall_mshr_miss_rate::.cpu.data     0.000947                       # mshr miss rate for overall accesses
system.cpu.dcache.overall_mshr_miss_rate::total     0.000947                       # mshr miss rate for overall accesses
system.cpu.dcache.demand_avg_mshr_miss_latency::.cpu.data 38910.842445                       # average overall mshr miss latency
system.cpu.dcache.demand_avg_mshr_miss_latency::total 38910.842445                       # average overall mshr miss latency
system.cpu.dcache.overall_avg_mshr_miss_latency::.cpu.data 39092.620157                       # average overall mshr miss latency
system.cpu.dcache.overall_avg_mshr_miss_latency::total 39092.620157                       # average overall mshr miss latency
system.cpu.dcache.replacements                  37559                       # number of replacements
system.cpu.dcache.ReadReq_hits::.cpu.data     37635504                       # number of ReadReq hits
system.cpu.dcache.ReadReq_hits::total        37635504                       # number of ReadReq hits
system.cpu.dcache.ReadReq_misses::.cpu.data         7804                       # number of ReadReq misses
system.cpu.dcache.ReadReq_misses::total          7804                       # number of ReadReq misses
system.cpu.dcache.ReadReq_miss_latency::.cpu.data    274454000                       # number of ReadReq miss cycles
system.cpu.dcache.ReadReq_miss_latency::total    274454000                       # number of ReadReq miss cycles
system.cpu.dcache.ReadReq_accesses::.cpu.data     37643308                       # number of ReadReq accesses(hits+misses)
system.cpu.dcache.ReadReq_accesses::total     37643308                       # number of ReadReq accesses(hits+misses)
system.cpu.dcache.ReadReq_miss_rate::.cpu.data     0.000207                       # miss rate for ReadReq accesses
system.cpu.dcache.ReadReq_miss_rate::total     0.000207                       # miss rate for ReadReq accesses
system.cpu.dcache.ReadReq_avg_miss_latency::.cpu.data 35168.375192                       # average ReadReq miss latency
system.cpu.dcache.ReadReq_avg_miss_latency::total 35168.375192                       # average ReadReq miss latency
system.cpu.dcache.ReadReq_mshr_hits::.cpu.data          111                       # number of ReadReq MSHR hits
system.cpu.dcache.ReadReq_mshr_hits::total          111                       # number of ReadReq MSHR hits
system.cpu.dcache.ReadReq_mshr_misses::.cpu.data         7693                       # number of ReadReq MSHR misses
system.cpu.dcache.ReadReq_mshr_misses::total         7693                       # number of ReadReq MSHR misses
system.cpu.dcache.ReadReq_mshr_miss_latency::.cpu.data    248672000                       # number of ReadReq MSHR miss cycles
system.cpu.dcache.ReadReq_mshr_miss_latency::total    248672000                       # number of ReadReq MSHR miss cycles
system.cpu.dcache.ReadReq_mshr_miss_rate::.cpu.data     0.000204                       # mshr miss rate for ReadReq accesses
system.cpu.dcache.ReadReq_mshr_miss_rate::total     0.000204                       # mshr miss rate for ReadReq accesses
system.cpu.dcache.ReadReq_avg_mshr_miss_latency::.cpu.data 32324.450799                       # average ReadReq mshr miss latency
system.cpu.dcache.ReadReq_avg_mshr_miss_latency::total 32324.450799                       # average ReadReq mshr miss latency
system.cpu.dcache.WriteReq_hits::.cpu.data      6279802                       # number of WriteReq hits
system.cpu.dcache.WriteReq_hits::total        6279802                       # number of WriteReq hits
system.cpu.dcache.WriteReq_misses::.cpu.data        41102                       # number of WriteReq misses
system.cpu.dcache.WriteReq_misses::total        41102                       # number of WriteReq misses
system.cpu.dcache.WriteReq_miss_latency::.cpu.data   1906578000                       # number of WriteReq miss cycles
system.cpu.dcache.WriteReq_miss_latency::total   1906578000                       # number of WriteReq miss cycles
system.cpu.dcache.WriteReq_accesses::.cpu.data      6320904                       # number of WriteReq accesses(hits+misses)
system.cpu.dcache.WriteReq_accesses::total      6320904                       # number of WriteReq accesses(hits+misses)
system.cpu.dcache.WriteReq_miss_rate::.cpu.data     0.006503                       # miss rate for WriteReq accesses
system.cpu.dcache.WriteReq_miss_rate::total     0.006503                       # miss rate for WriteReq accesses
system.cpu.dcache.WriteReq_avg_miss_latency::.cpu.data 46386.501873                       # average WriteReq miss latency
system.cpu.dcache.WriteReq_avg_miss_latency::total 46386.501873                       # average WriteReq miss latency
system.cpu.dcache.WriteReq_mshr_hits::.cpu.data         7273                       # number of WriteReq MSHR hits
system.cpu.dcache.WriteReq_mshr_hits::total         7273                       # number of WriteReq MSHR hits
system.cpu.dcache.WriteReq_mshr_misses::.cpu.data        33829                       # number of WriteReq MSHR misses
system.cpu.dcache.WriteReq_mshr_misses::total        33829                       # number of WriteReq MSHR misses
system.cpu.dcache.WriteReq_mshr_miss_latency::.cpu.data   1366984000                       # number of WriteReq MSHR miss cycles
system.cpu.dcache.WriteReq_mshr_miss_latency::total   1366984000                       # number of WriteReq MSHR miss cycles
system.cpu.dcache.WriteReq_mshr_miss_rate::.cpu.data     0.005352                       # mshr miss rate for WriteReq accesses
system.cpu.dcache.WriteReq_mshr_miss_rate::total     0.005352                       # mshr miss rate for WriteReq accesses
system.cpu.dcache.WriteReq_avg_mshr_miss_latency::.cpu.data 40408.643472                       # average WriteReq mshr miss latency
system.cpu.dcache.WriteReq_avg_mshr_miss_latency::total 40408.643472                       # average WriteReq mshr miss latency
system.cpu.dcache.SoftPFReq_hits::.cpu.data         8607                       # number of SoftPFReq hits
system.cpu.dcache.SoftPFReq_hits::total          8607                       # number of SoftPFReq hits
system.cpu.dcache.SoftPFReq_misses::.cpu.data          140                       # number of SoftPFReq misses
system.cpu.dcache.SoftPFReq_misses::total          140                       # number of SoftPFReq misses
system.cpu.dcache.SoftPFReq_accesses::.cpu.data         8747                       # number of SoftPFReq accesses(hits+misses)
system.cpu.dcache.SoftPFReq_accesses::total         8747                       # number of SoftPFReq accesses(hits+misses)
system.cpu.dcache.SoftPFReq_miss_rate::.cpu.data     0.016005                       # miss rate for SoftPFReq accesses
system.cpu.dcache.SoftPFReq_miss_rate::total     0.016005                       # miss rate for SoftPFReq accesses
system.cpu.dcache.SoftPFReq_mshr_misses::.cpu.data          132                       # number of SoftPFReq MSHR misses
system.cpu.dcache.SoftPFReq_mshr_misses::total          132                       # number of SoftPFReq MSHR misses
system.cpu.dcache.SoftPFReq_mshr_miss_latency::.cpu.data     12708000                       # number of SoftPFReq MSHR miss cycles
system.cpu.dcache.SoftPFReq_mshr_miss_latency::total     12708000                       # number of SoftPFReq MSHR miss cycles
system.cpu.dcache.SoftPFReq_mshr_miss_rate::.cpu.data     0.015091                       # mshr miss rate for SoftPFReq accesses
system.cpu.dcache.SoftPFReq_mshr_miss_rate::total     0.015091                       # mshr miss rate for SoftPFReq accesses
system.cpu.dcache.SoftPFReq_avg_mshr_miss_latency::.cpu.data 96272.727273                       # average SoftPFReq mshr miss latency
system.cpu.dcache.SoftPFReq_avg_mshr_miss_latency::total 96272.727273                       # average SoftPFReq mshr miss latency
system.cpu.dcache.LoadLockedReq_hits::.cpu.data          165                       # number of LoadLockedReq hits
system.cpu.dcache.LoadLockedReq_hits::total          165                       # number of LoadLockedReq hits
system.cpu.dcache.LoadLockedReq_misses::.cpu.data            1                       # number of LoadLockedReq misses
system.cpu.dcache.LoadLockedReq_misses::total            1                       # number of LoadLockedReq misses
system.cpu.dcache.LoadLockedReq_miss_latency::.cpu.data        95000                       # number of LoadLockedReq miss cycles
system.cpu.dcache.LoadLockedReq_miss_latency::total        95000                       # number of LoadLockedReq miss cycles
system.cpu.dcache.LoadLockedReq_accesses::.cpu.data          166                       # number of LoadLockedReq accesses(hits+misses)
system.cpu.dcache.LoadLockedReq_accesses::total          166                       # number of LoadLockedReq accesses(hits+misses)
system.cpu.dcache.LoadLockedReq_miss_rate::.cpu.data     0.006024                       # miss rate for LoadLockedReq accesses
system.cpu.dcache.LoadLockedReq_miss_rate::total     0.006024                       # miss rate for LoadLockedReq accesses
system.cpu.dcache.LoadLockedReq_avg_miss_latency::.cpu.data        95000                       # average LoadLockedReq miss latency
system.cpu.dcache.LoadLockedReq_avg_miss_latency::total        95000                       # average LoadLockedReq miss latency
system.cpu.dcache.LoadLockedReq_mshr_misses::.cpu.data            1                       # number of LoadLockedReq MSHR misses
system.cpu.dcache.LoadLockedReq_mshr_misses::total            1                       # number of LoadLockedReq MSHR misses
system.cpu.dcache.LoadLockedReq_mshr_miss_latency::.cpu.data        93000                       # number of LoadLockedReq MSHR miss cycles
system.cpu.dcache.LoadLockedReq_mshr_miss_latency::total        93000                       # number of LoadLockedReq MSHR miss cycles
system.cpu.dcache.LoadLockedReq_mshr_miss_rate::.cpu.data     0.006024                       # mshr miss rate for LoadLockedReq accesses
system.cpu.dcache.LoadLockedReq_mshr_miss_rate::total     0.006024                       # mshr miss rate for LoadLockedReq accesses
system.cpu.dcache.LoadLockedReq_avg_mshr_miss_latency::.cpu.data        93000                       # average LoadLockedReq mshr miss latency
system.cpu.dcache.LoadLockedReq_avg_mshr_miss_latency::total        93000                       # average LoadLockedReq mshr miss latency
system.cpu.dcache.StoreCondReq_hits::.cpu.data          166                       # number of StoreCondReq hits
system.cpu.dcache.StoreCondReq_hits::total          166                       # number of StoreCondReq hits
system.cpu.dcache.StoreCondReq_accesses::.cpu.data          166                       # number of StoreCondReq accesses(hits+misses)
system.cpu.dcache.StoreCondReq_accesses::total          166                       # number of StoreCondReq accesses(hits+misses)
system.cpu.dcache.power_state.pwrStateResidencyTicks::UNDEFINED 118748325000                       # Cumulative time (in ticks) in various power states
system.cpu.dcache.tags.tagsinuse          4015.951701                       # Cycle average of tags in use
system.cpu.dcache.tags.total_refs            43965899                       # Total number of references to valid blocks.
system.cpu.dcache.tags.sampled_refs             41655                       # Sample count of references to valid blocks.
system.cpu.dcache.tags.avg_refs           1055.477110                       # Average number of references to valid blocks.
system.cpu.dcache.tags.warmup_cycle            223000                       # Cycle when the warmup percentage was hit.
system.cpu.dcache.tags.occ_blocks::.cpu.data  4015.951701                       # Average occupied blocks per requestor
system.cpu.dcache.tags.occ_percent::.cpu.data     0.980457                       # Average percentage of cache occupancy
system.cpu.dcache.tags.occ_percent::total     0.980457                       # Average percentage of cache occupancy
system.cpu.dcache.tags.occ_task_id_blocks::1024         4096                       # Occupied blocks per task id
system.cpu.dcache.tags.age_task_id_blocks_1024::2          142                       # Occupied blocks per task id
system.cpu.dcache.tags.age_task_id_blocks_1024::3         3304                       # Occupied blocks per task id
system.cpu.dcache.tags.age_task_id_blocks_1024::4          650                       # Occupied blocks per task id
system.cpu.dcache.tags.occ_task_id_percent::1024            1                       # Percentage of cache occupancy per task id
system.cpu.dcache.tags.tag_accesses         703614311                       # Number of tag accesses
system.cpu.dcache.tags.data_accesses        703614311                       # Number of data accesses
system.cpu.dcache.tags.power_state.pwrStateResidencyTicks::UNDEFINED 118748325000                       # Cumulative time (in ticks) in various power states
system.cpu.dtb.instHits                             0                       # ITB inst hits
system.cpu.dtb.instMisses                           0                       # ITB inst misses
system.cpu.dtb.readHits                             0                       # DTB read hits
system.cpu.dtb.readMisses                           0                       # DTB read misses
system.cpu.dtb.writeHits                            0                       # DTB write hits
system.cpu.dtb.writeMisses                          0                       # DTB write misses
system.cpu.dtb.inserts                              0                       # Number of times an entry is inserted into the TLB
system.cpu.dtb.flushTlb                             0                       # Number of times complete TLB was flushed
system.cpu.dtb.flushTlbMva                          0                       # Number of times TLB was flushed by MVA
system.cpu.dtb.flushTlbMvaAsid                      0                       # Number of times TLB was flushed by MVA & ASID
system.cpu.dtb.flushTlbAsid                         0                       # Number of times TLB was flushed by ASID
system.cpu.dtb.flushedEntries                       0                       # Number of entries that have been flushed from TLB
system.cpu.dtb.alignFaults                          0                       # Number of TLB faults due to alignment restrictions
system.cpu.dtb.prefetchFaults                       0                       # Number of TLB faults due to prefetch
system.cpu.dtb.domainFaults                         0                       # Number of TLB faults due to domain restrictions
system.cpu.dtb.permsFaults                          0                       # Number of TLB faults due to permissions restrictions
system.cpu.dtb.readAccesses                         0                       # DTB read accesses
system.cpu.dtb.writeAccesses                        0                       # DTB write accesses
system.cpu.dtb.instAccesses                         0                       # ITB inst accesses
system.cpu.dtb.hits                                 0                       # Total TLB (inst and data) hits
system.cpu.dtb.misses                               0                       # Total TLB (inst and data) misses
system.cpu.dtb.accesses                             0                       # Total TLB (inst and data) accesses
system.cpu.dtb.stage2_mmu.stage2_tlb.instHits            0                       # ITB inst hits
system.cpu.dtb.stage2_mmu.stage2_tlb.instMisses            0                       # ITB inst misses
system.cpu.dtb.stage2_mmu.stage2_tlb.readHits            0                       # DTB read hits
system.cpu.dtb.stage2_mmu.stage2_tlb.readMisses            0                       # DTB read misses
system.cpu.dtb.stage2_mmu.stage2_tlb.writeHits            0                       # DTB write hits
system.cpu.dtb.stage2_mmu.stage2_tlb.writeMisses            0                       # DTB write misses
system.cpu.dtb.stage2_mmu.stage2_tlb.inserts            0                       # Number of times an entry is inserted into the TLB
system.cpu.dtb.stage2_mmu.stage2_tlb.flushTlb            0                       # Number of times complete TLB was flushed
system.cpu.dtb.stage2_mmu.stage2_tlb.flushTlbMva            0                       # Number of times TLB was flushed by MVA
system.cpu.dtb.stage2_mmu.stage2_tlb.flushTlbMvaAsid            0                       # Number of times TLB was flushed by MVA & ASID
system.cpu.dtb.stage2_mmu.stage2_tlb.flushTlbAsid            0                       # Number of times TLB was flushed by ASID
system.cpu.dtb.stage2_mmu.stage2_tlb.flushedEntries            0                       # Number of entries that have been flushed from TLB
system.cpu.dtb.stage2_mmu.stage2_tlb.alignFaults            0                       # Number of TLB faults due to alignment restrictions
system.cpu.dtb.stage2_mmu.stage2_tlb.prefetchFaults            0                       # Number of TLB faults due to prefetch
system.cpu.dtb.stage2_mmu.stage2_tlb.domainFaults            0                       # Number of TLB faults due to domain restrictions
system.cpu.dtb.stage2_mmu.stage2_tlb.permsFaults            0                       # Number of TLB faults due to permissions restrictions
system.cpu.dtb.stage2_mmu.stage2_tlb.readAccesses            0                       # DTB read accesses
system.cpu.dtb.stage2_mmu.stage2_tlb.writeAccesses            0                       # DTB write accesses
system.cpu.dtb.stage2_mmu.stage2_tlb.instAccesses            0                       # ITB inst accesses
system.cpu.dtb.stage2_mmu.stage2_tlb.hits            0                       # Total TLB (inst and data) hits
system.cpu.dtb.stage2_mmu.stage2_tlb.misses            0                       # Total TLB (inst and data) misses
system.cpu.dtb.stage2_mmu.stage2_tlb.accesses            0                       # Total TLB (inst and data) accesses
system.cpu.dtb.stage2_mmu.stage2_tlb.walker.walks            0                       # Table walker walks requested
system.cpu.dtb.stage2_mmu.stage2_tlb.walker.requestOrigin_Requested::Data            0                       # Table walker requests started/completed, data/inst
system.cpu.dtb.stage2_mmu.stage2_tlb.walker.requestOrigin_Requested::Inst            0                       # Table walker requests started/completed, data/inst
system.cpu.dtb.stage2_mmu.stage2_tlb.walker.requestOrigin_Requested::total            0                       # Table walker requests started/completed, data/inst
system.cpu.dtb.stage2_mmu.stage2_tlb.walker.requestOrigin_Completed::Data            0                       # Table walker requests started/completed, data/inst
system.cpu.dtb.stage2_mmu.stage2_tlb.walker.requestOrigin_Completed::Inst            0                       # Table walker requests started/completed, data/inst
system.cpu.dtb.stage2_mmu.stage2_tlb.walker.requestOrigin_Completed::total            0                       # Table walker requests started/completed, data/inst
system.cpu.dtb.stage2_mmu.stage2_tlb.walker.requestOrigin::total            0                       # Table walker requests started/completed, data/inst
system.cpu.dtb.stage2_mmu.stage2_tlb.walker.power_state.pwrStateResidencyTicks::UNDEFINED 118748325000                       # Cumulative time (in ticks) in various power states
system.cpu.dtb.walker.walks                         0                       # Table walker walks requested
system.cpu.dtb.walker.requestOrigin_Requested::Data            0                       # Table walker requests started/completed, data/inst
system.cpu.dtb.walker.requestOrigin_Requested::Inst            0                       # Table walker requests started/completed, data/inst
system.cpu.dtb.walker.requestOrigin_Requested::total            0                       # Table walker requests started/completed, data/inst
system.cpu.dtb.walker.requestOrigin_Completed::Data            0                       # Table walker requests started/completed, data/inst
system.cpu.dtb.walker.requestOrigin_Completed::Inst            0                       # Table walker requests started/completed, data/inst
system.cpu.dtb.walker.requestOrigin_Completed::total            0                       # Table walker requests started/completed, data/inst
system.cpu.dtb.walker.requestOrigin::total            0                       # Table walker requests started/completed, data/inst
system.cpu.dtb.walker.power_state.pwrStateResidencyTicks::UNDEFINED 118748325000                       # Cumulative time (in ticks) in various power states
system.cpu.fetch2.intInstructions            48864688                       # Number of integer instructions successfully decoded
system.cpu.fetch2.fpInstructions                    0                       # Number of floating point instructions successfully decoded
system.cpu.fetch2.vecInstructions                   0                       # Number of SIMD instructions successfully decoded
system.cpu.fetch2.loadInstructions           40536178                       # Number of memory load instructions successfully decoded
system.cpu.fetch2.storeInstructions           6265339                       # Number of memory store instructions successfully decoded
system.cpu.fetch2.amoInstructions                   0                       # Number of memory atomic instructions successfully decoded
system.cpu.icache.demand_hits::.cpu.inst     20249093                       # number of demand (read+write) hits
system.cpu.icache.demand_hits::total         20249093                       # number of demand (read+write) hits
system.cpu.icache.overall_hits::.cpu.inst     20249093                       # number of overall hits
system.cpu.icache.overall_hits::total        20249093                       # number of overall hits
system.cpu.icache.demand_misses::.cpu.inst         8524                       # number of demand (read+write) misses
system.cpu.icache.demand_misses::total           8524                       # number of demand (read+write) misses
system.cpu.icache.overall_misses::.cpu.inst         8524                       # number of overall misses
system.cpu.icache.overall_misses::total          8524                       # number of overall misses
system.cpu.icache.demand_miss_latency::.cpu.inst    384708000                       # number of demand (read+write) miss cycles
system.cpu.icache.demand_miss_latency::total    384708000                       # number of demand (read+write) miss cycles
system.cpu.icache.overall_miss_latency::.cpu.inst    384708000                       # number of overall miss cycles
system.cpu.icache.overall_miss_latency::total    384708000                       # number of overall miss cycles
system.cpu.icache.demand_accesses::.cpu.inst     20257617                       # number of demand (read+write) accesses
system.cpu.icache.demand_accesses::total     20257617                       # number of demand (read+write) accesses
system.cpu.icache.overall_accesses::.cpu.inst     20257617                       # number of overall (read+write) accesses
system.cpu.icache.overall_accesses::total     20257617                       # number of overall (read+write) accesses
system.cpu.icache.demand_miss_rate::.cpu.inst     0.000421                       # miss rate for demand accesses
system.cpu.icache.demand_miss_rate::total     0.000421                       # miss rate for demand accesses
system.cpu.icache.overall_miss_rate::.cpu.inst     0.000421                       # miss rate for overall accesses
system.cpu.icache.overall_miss_rate::total     0.000421                       # miss rate for overall accesses
system.cpu.icache.demand_avg_miss_latency::.cpu.inst 45132.332238                       # average overall miss latency
system.cpu.icache.demand_avg_miss_latency::total 45132.332238                       # average overall miss latency
system.cpu.icache.overall_avg_miss_latency::.cpu.inst 45132.332238                       # average overall miss latency
system.cpu.icache.overall_avg_miss_latency::total 45132.332238                       # average overall miss latency
system.cpu.icache.blocked_cycles::no_mshrs            0                       # number of cycles access was blocked
system.cpu.icache.blocked_cycles::no_targets            0                       # number of cycles access was blocked
system.cpu.icache.blocked::no_mshrs                 0                       # number of cycles access was blocked
system.cpu.icache.blocked::no_targets               0                       # number of cycles access was blocked
system.cpu.icache.avg_blocked_cycles::no_mshrs          nan                       # average number of cycles each access was blocked
system.cpu.icache.avg_blocked_cycles::no_targets          nan                       # average number of cycles each access was blocked
system.cpu.icache.writebacks::.writebacks         7064                       # number of writebacks
system.cpu.icache.writebacks::total              7064                       # number of writebacks
system.cpu.icache.demand_mshr_misses::.cpu.inst         8524                       # number of demand (read+write) MSHR misses
system.cpu.icache.demand_mshr_misses::total         8524                       # number of demand (read+write) MSHR misses
system.cpu.icache.overall_mshr_misses::.cpu.inst         8524                       # number of overall MSHR misses
system.cpu.icache.overall_mshr_misses::total         8524                       # number of overall MSHR misses
system.cpu.icache.demand_mshr_miss_latency::.cpu.inst    367660000                       # number of demand (read+write) MSHR miss cycles
system.cpu.icache.demand_mshr_miss_latency::total    367660000                       # number of demand (read+write) MSHR miss cycles
system.cpu.icache.overall_mshr_miss_latency::.cpu.inst    367660000                       # number of overall MSHR miss cycles
system.cpu.icache.overall_mshr_miss_latency::total    367660000                       # number of overall MSHR miss cycles
system.cpu.icache.demand_mshr_miss_rate::.cpu.inst     0.000421                       # mshr miss rate for demand accesses
system.cpu.icache.demand_mshr_miss_rate::total     0.000421                       # mshr miss rate for demand accesses
system.cpu.icache.overall_mshr_miss_rate::.cpu.inst     0.000421                       # mshr miss rate for overall accesses
system.cpu.icache.overall_mshr_miss_rate::total     0.000421                       # mshr miss rate for overall accesses
system.cpu.icache.demand_avg_mshr_miss_latency::.cpu.inst 43132.332238                       # average overall mshr miss latency
system.cpu.icache.demand_avg_mshr_miss_latency::total 43132.332238                       # average overall mshr miss latency
system.cpu.icache.overall_avg_mshr_miss_latency::.cpu.inst 43132.332238                       # average overall mshr miss latency
system.cpu.icache.overall_avg_mshr_miss_latency::total 43132.332238                       # average overall mshr miss latency
system.cpu.icache.replacements                   7064                       # number of replacements
system.cpu.icache.ReadReq_hits::.cpu.inst     20249093                       # number of ReadReq hits
system.cpu.icache.ReadReq_hits::total        20249093                       # number of ReadReq hits
system.cpu.icache.ReadReq_misses::.cpu.inst         8524                       # number of ReadReq misses
system.cpu.icache.ReadReq_misses::total          8524                       # number of ReadReq misses
system.cpu.icache.ReadReq_miss_latency::.cpu.inst    384708000                       # number of ReadReq miss cycles
system.cpu.icache.ReadReq_miss_latency::total    384708000                       # number of ReadReq miss cycles
system.cpu.icache.ReadReq_accesses::.cpu.inst     20257617                       # number of ReadReq accesses(hits+misses)
system.cpu.icache.ReadReq_accesses::total     20257617                       # number of ReadReq accesses(hits+misses)
system.cpu.icache.ReadReq_miss_rate::.cpu.inst     0.000421                       # miss rate for ReadReq accesses
system.cpu.icache.ReadReq_miss_rate::total     0.000421                       # miss rate for ReadReq accesses
system.cpu.icache.ReadReq_avg_miss_latency::.cpu.inst 45132.332238                       # average ReadReq miss latency
system.cpu.icache.ReadReq_avg_miss_latency::total 45132.332238                       # average ReadReq miss latency
system.cpu.icache.ReadReq_mshr_misses::.cpu.inst         8524                       # number of ReadReq MSHR misses
system.cpu.icache.ReadReq_mshr_misses::total         8524                       # number of ReadReq MSHR misses
system.cpu.icache.ReadReq_mshr_miss_latency::.cpu.inst    367660000                       # number of ReadReq MSHR miss cycles
system.cpu.icache.ReadReq_mshr_miss_latency::total    367660000                       # number of ReadReq MSHR miss cycles
system.cpu.icache.ReadReq_mshr_miss_rate::.cpu.inst     0.000421                       # mshr miss rate for ReadReq accesses
system.cpu.icache.ReadReq_mshr_miss_rate::total     0.000421                       # mshr miss rate for ReadReq accesses
system.cpu.icache.ReadReq_avg_mshr_miss_latency::.cpu.inst 43132.332238                       # average ReadReq mshr miss latency
system.cpu.icache.ReadReq_avg_mshr_miss_latency::total 43132.332238                       # average ReadReq mshr miss latency
system.cpu.icache.power_state.pwrStateResidencyTicks::UNDEFINED 118748325000                       # Cumulative time (in ticks) in various power states
system.cpu.icache.tags.tagsinuse          1451.814271                       # Cycle average of tags in use
system.cpu.icache.tags.total_refs            20257617                       # Total number of references to valid blocks.
system.cpu.icache.tags.sampled_refs              8524                       # Sample count of references to valid blocks.
system.cpu.icache.tags.avg_refs           2376.538832                       # Average number of references to valid blocks.
system.cpu.icache.tags.warmup_cycle            108000                       # Cycle when the warmup percentage was hit.
system.cpu.icache.tags.occ_blocks::.cpu.inst  1451.814271                       # Average occupied blocks per requestor
system.cpu.icache.tags.occ_percent::.cpu.inst     0.708894                       # Average percentage of cache occupancy
system.cpu.icache.tags.occ_percent::total     0.708894                       # Average percentage of cache occupancy
system.cpu.icache.tags.occ_task_id_blocks::1024         1460                       # Occupied blocks per task id
system.cpu.icache.tags.age_task_id_blocks_1024::2            1                       # Occupied blocks per task id
system.cpu.icache.tags.age_task_id_blocks_1024::3            3                       # Occupied blocks per task id
system.cpu.icache.tags.age_task_id_blocks_1024::4         1456                       # Occupied blocks per task id
system.cpu.icache.tags.occ_task_id_percent::1024     0.712891                       # Percentage of cache occupancy per task id
system.cpu.icache.tags.tag_accesses          20266141                       # Number of tag accesses
system.cpu.icache.tags.data_accesses         20266141                       # Number of data accesses
system.cpu.icache.tags.power_state.pwrStateResidencyTicks::UNDEFINED 118748325000                       # Cumulative time (in ticks) in various power states
system.cpu.itb.instHits                             0                       # ITB inst hits
system.cpu.itb.instMisses                           0                       # ITB inst misses
system.cpu.itb.readHits                             0                       # DTB read hits
system.cpu.itb.readMisses                           0                       # DTB read misses
system.cpu.itb.writeHits                            0                       # DTB write hits
system.cpu.itb.writeMisses                          0                       # DTB write misses
system.cpu.itb.inserts                              0                       # Number of times an entry is inserted into the TLB
system.cpu.itb.flushTlb                             0                       # Number of times complete TLB was flushed
system.cpu.itb.flushTlbMva                          0                       # Number of times TLB was flushed by MVA
system.cpu.itb.flushTlbMvaAsid                      0                       # Number of times TLB was flushed by MVA & ASID
system.cpu.itb.flushTlbAsid                         0                       # Number of times TLB was flushed by ASID
system.cpu.itb.flushedEntries                       0                       # Number of entries that have been flushed from TLB
system.cpu.itb.alignFaults                          0                       # Number of TLB faults due to alignment restrictions
system.cpu.itb.prefetchFaults                       0                       # Number of TLB faults due to prefetch
system.cpu.itb.domainFaults                         0                       # Number of TLB faults due to domain restrictions
system.cpu.itb.permsFaults                          0                       # Number of TLB faults due to permissions restrictions
system.cpu.itb.readAccesses                         0                       # DTB read accesses
system.cpu.itb.writeAccesses                        0                       # DTB write accesses
system.cpu.itb.instAccesses                         0                       # ITB inst accesses
system.cpu.itb.hits                                 0                       # Total TLB (inst and data) hits
system.cpu.itb.misses                               0                       # Total TLB (inst and data) misses
system.cpu.itb.accesses                             0                       # Total TLB (inst and data) accesses
system.cpu.itb.stage2_mmu.stage2_tlb.instHits            0                       # ITB inst hits
system.cpu.itb.stage2_mmu.stage2_tlb.instMisses            0                       # ITB inst misses
system.cpu.itb.stage2_mmu.stage2_tlb.readHits            0                       # DTB read hits
system.cpu.itb.stage2_mmu.stage2_tlb.readMisses            0                       # DTB read misses
system.cpu.itb.stage2_mmu.stage2_tlb.writeHits            0                       # DTB write hits
system.cpu.itb.stage2_mmu.stage2_tlb.writeMisses            0                       # DTB write misses
system.cpu.itb.stage2_mmu.stage2_tlb.inserts            0                       # Number of times an entry is inserted into the TLB
system.cpu.itb.stage2_mmu.stage2_tlb.flushTlb            0                       # Number of times complete TLB was flushed
system.cpu.itb.stage2_mmu.stage2_tlb.flushTlbMva            0                       # Number of times TLB was flushed by MVA
system.cpu.itb.stage2_mmu.stage2_tlb.flushTlbMvaAsid            0                       # Number of times TLB was flushed by MVA & ASID
system.cpu.itb.stage2_mmu.stage2_tlb.flushTlbAsid            0                       # Number of times TLB was flushed by ASID
system.cpu.itb.stage2_mmu.stage2_tlb.flushedEntries            0                       # Number of entries that have been flushed from TLB
system.cpu.itb.stage2_mmu.stage2_tlb.alignFaults            0                       # Number of TLB faults due to alignment restrictions
system.cpu.itb.stage2_mmu.stage2_tlb.prefetchFaults            0                       # Number of TLB faults due to prefetch
system.cpu.itb.stage2_mmu.stage2_tlb.domainFaults            0                       # Number of TLB faults due to domain restrictions
system.cpu.itb.stage2_mmu.stage2_tlb.permsFaults            0                       # Number of TLB faults due to permissions restrictions
system.cpu.itb.stage2_mmu.stage2_tlb.readAccesses            0                       # DTB read accesses
system.cpu.itb.stage2_mmu.stage2_tlb.writeAccesses            0                       # DTB write accesses
system.cpu.itb.stage2_mmu.stage2_tlb.instAccesses            0                       # ITB inst accesses
system.cpu.itb.stage2_mmu.stage2_tlb.hits            0                       # Total TLB (inst and data) hits
system.cpu.itb.stage2_mmu.stage2_tlb.misses            0                       # Total TLB (inst and data) misses
system.cpu.itb.stage2_mmu.stage2_tlb.accesses            0                       # Total TLB (inst and data) accesses
system.cpu.itb.stage2_mmu.stage2_tlb.walker.walks            0                       # Table walker walks requested
system.cpu.itb.stage2_mmu.stage2_tlb.walker.requestOrigin_Requested::Data            0                       # Table walker requests started/completed, data/inst
system.cpu.itb.stage2_mmu.stage2_tlb.walker.requestOrigin_Requested::Inst            0                       # Table walker requests started/completed, data/inst
system.cpu.itb.stage2_mmu.stage2_tlb.walker.requestOrigin_Requested::total            0                       # Table walker requests started/completed, data/inst
system.cpu.itb.stage2_mmu.stage2_tlb.walker.requestOrigin_Completed::Data            0                       # Table walker requests started/completed, data/inst
system.cpu.itb.stage2_mmu.stage2_tlb.walker.requestOrigin_Completed::Inst            0                       # Table walker requests started/completed, data/inst
system.cpu.itb.stage2_mmu.stage2_tlb.walker.requestOrigin_Completed::total            0                       # Table walker requests started/completed, data/inst
system.cpu.itb.stage2_mmu.stage2_tlb.walker.requestOrigin::total            0                       # Table walker requests started/completed, data/inst
system.cpu.itb.stage2_mmu.stage2_tlb.walker.power_state.pwrStateResidencyTicks::UNDEFINED 118748325000                       # Cumulative time (in ticks) in various power states
system.cpu.itb.walker.walks                         0                       # Table walker walks requested
system.cpu.itb.walker.requestOrigin_Requested::Data            0                       # Table walker requests started/completed, data/inst
system.cpu.itb.walker.requestOrigin_Requested::Inst            0                       # Table walker requests started/completed, data/inst
system.cpu.itb.walker.requestOrigin_Requested::total            0                       # Table walker requests started/completed, data/inst
system.cpu.itb.walker.requestOrigin_Completed::Data            0                       # Table walker requests started/completed, data/inst
system.cpu.itb.walker.requestOrigin_Completed::Inst            0                       # Table walker requests started/completed, data/inst
system.cpu.itb.walker.requestOrigin_Completed::total            0                       # Table walker requests started/completed, data/inst
system.cpu.itb.walker.requestOrigin::total            0                       # Table walker requests started/completed, data/inst
system.cpu.itb.walker.power_state.pwrStateResidencyTicks::UNDEFINED 118748325000                       # Cumulative time (in ticks) in various power states
system.cpu.power_state.pwrStateResidencyTicks::ON 118748325000                       # Cumulative time (in ticks) in various power states
system.cpu.thread_0.numInsts                100000000                       # Number of Instructions committed
system.cpu.thread_0.numOps                  101102842                       # Number of Ops committed
system.cpu.thread_0.numMemRefs                      0                       # Number of Memory References
system.cpu_clk_domain.clock                      1000                       # Clock period in ticks
system.cpu_voltage_domain.voltage                   1                       # Voltage in Volts
system.l2.demand_hits::.cpu.inst                 6387                       # number of demand (read+write) hits
system.l2.demand_hits::.cpu.data                33416                       # number of demand (read+write) hits
system.l2.demand_hits::total                    39803                       # number of demand (read+write) hits
system.l2.overall_hits::.cpu.inst                6387                       # number of overall hits
system.l2.overall_hits::.cpu.data               33416                       # number of overall hits
system.l2.overall_hits::total                   39803                       # number of overall hits
system.l2.demand_misses::.cpu.inst               2137                       # number of demand (read+write) misses
system.l2.demand_misses::.cpu.data               8239                       # number of demand (read+write) misses
system.l2.demand_misses::total                  10376                       # number of demand (read+write) misses
system.l2.overall_misses::.cpu.inst              2137                       # number of overall misses
system.l2.overall_misses::.cpu.data              8239                       # number of overall misses
system.l2.overall_misses::total                 10376                       # number of overall misses
system.l2.demand_miss_latency::.cpu.inst    206807000                       # number of demand (read+write) miss cycles
system.l2.demand_miss_latency::.cpu.data    800837000                       # number of demand (read+write) miss cycles
system.l2.demand_miss_latency::total       1007644000                       # number of demand (read+write) miss cycles
system.l2.overall_miss_latency::.cpu.inst    206807000                       # number of overall miss cycles
system.l2.overall_miss_latency::.cpu.data    800837000                       # number of overall miss cycles
system.l2.overall_miss_latency::total      1007644000                       # number of overall miss cycles
system.l2.demand_accesses::.cpu.inst             8524                       # number of demand (read+write) accesses
system.l2.demand_accesses::.cpu.data            41655                       # number of demand (read+write) accesses
system.l2.demand_accesses::total                50179                       # number of demand (read+write) accesses
system.l2.overall_accesses::.cpu.inst            8524                       # number of overall (read+write) accesses
system.l2.overall_accesses::.cpu.data           41655                       # number of overall (read+write) accesses
system.l2.overall_accesses::total               50179                       # number of overall (read+write) accesses
system.l2.demand_miss_rate::.cpu.inst        0.250704                       # miss rate for demand accesses
system.l2.demand_miss_rate::.cpu.data        0.197791                       # miss rate for demand accesses
system.l2.demand_miss_rate::total            0.206780                       # miss rate for demand accesses
system.l2.overall_miss_rate::.cpu.inst       0.250704                       # miss rate for overall accesses
system.l2.overall_miss_rate::.cpu.data       0.197791                       # miss rate for overall accesses
system.l2.overall_miss_rate::total           0.206780                       # miss rate for overall accesses
system.l2.demand_avg_miss_latency::.cpu.inst 96774.450164                       # average overall miss latency
system.l2.demand_avg_miss_latency::.cpu.data 97200.752519                       # average overall miss latency
system.l2.demand_avg_miss_latency::total 97112.952968                       # average overall miss latency
system.l2.overall_avg_miss_latency::.cpu.inst 96774.450164                       # average overall miss latency
system.l2.overall_avg_miss_latency::.cpu.data 97200.752519                       # average overall miss latency
system.l2.overall_avg_miss_latency::total 97112.952968                       # average overall miss latency
system.l2.blocked_cycles::no_mshrs                  0                       # number of cycles access was blocked
system.l2.blocked_cycles::no_targets                0                       # number of cycles access was blocked
system.l2.blocked::no_mshrs                         0                       # number of cycles access was blocked
system.l2.blocked::no_targets                       0                       # number of cycles access was blocked
system.l2.avg_blocked_cycles::no_mshrs            nan                       # average number of cycles each access was blocked
system.l2.avg_blocked_cycles::no_targets          nan                       # average number of cycles each access was blocked
system.l2.demand_mshr_hits::.cpu.data               6                       # number of demand (read+write) MSHR hits
system.l2.demand_mshr_hits::total                   6                       # number of demand (read+write) MSHR hits
system.l2.overall_mshr_hits::.cpu.data              6                       # number of overall MSHR hits
system.l2.overall_mshr_hits::total                  6                       # number of overall MSHR hits
system.l2.demand_mshr_misses::.cpu.inst          2137                       # number of demand (read+write) MSHR misses
system.l2.demand_mshr_misses::.cpu.data          8233                       # number of demand (read+write) MSHR misses
system.l2.demand_mshr_misses::total             10370                       # number of demand (read+write) MSHR misses
system.l2.overall_mshr_misses::.cpu.inst         2137                       # number of overall MSHR misses
system.l2.overall_mshr_misses::.cpu.data         8233                       # number of overall MSHR misses
system.l2.overall_mshr_misses::total            10370                       # number of overall MSHR misses
system.l2.demand_mshr_miss_latency::.cpu.inst    164067000                       # number of demand (read+write) MSHR miss cycles
system.l2.demand_mshr_miss_latency::.cpu.data    635656000                       # number of demand (read+write) MSHR miss cycles
system.l2.demand_mshr_miss_latency::total    799723000                       # number of demand (read+write) MSHR miss cycles
system.l2.overall_mshr_miss_latency::.cpu.inst    164067000                       # number of overall MSHR miss cycles
system.l2.overall_mshr_miss_latency::.cpu.data    635656000                       # number of overall MSHR miss cycles
system.l2.overall_mshr_miss_latency::total    799723000                       # number of overall MSHR miss cycles
system.l2.demand_mshr_miss_rate::.cpu.inst     0.250704                       # mshr miss rate for demand accesses
system.l2.demand_mshr_miss_rate::.cpu.data     0.197647                       # mshr miss rate for demand accesses
system.l2.demand_mshr_miss_rate::total       0.206660                       # mshr miss rate for demand accesses
system.l2.overall_mshr_miss_rate::.cpu.inst     0.250704                       # mshr miss rate for overall accesses
system.l2.overall_mshr_miss_rate::.cpu.data     0.197647                       # mshr miss rate for overall accesses
system.l2.overall_mshr_miss_rate::total      0.206660                       # mshr miss rate for overall accesses
system.l2.demand_avg_mshr_miss_latency::.cpu.inst 76774.450164                       # average overall mshr miss latency
system.l2.demand_avg_mshr_miss_latency::.cpu.data 77208.308029                       # average overall mshr miss latency
system.l2.demand_avg_mshr_miss_latency::total 77118.900675                       # average overall mshr miss latency
system.l2.overall_avg_mshr_miss_latency::.cpu.inst 76774.450164                       # average overall mshr miss latency
system.l2.overall_avg_mshr_miss_latency::.cpu.data 77208.308029                       # average overall mshr miss latency
system.l2.overall_avg_mshr_miss_latency::total 77118.900675                       # average overall mshr miss latency
system.l2.replacements                              0                       # number of replacements
system.l2.WritebackDirty_hits::.writebacks        36381                       # number of WritebackDirty hits
system.l2.WritebackDirty_hits::total            36381                       # number of WritebackDirty hits
system.l2.WritebackDirty_accesses::.writebacks        36381                       # number of WritebackDirty accesses(hits+misses)
system.l2.WritebackDirty_accesses::total        36381                       # number of WritebackDirty accesses(hits+misses)
system.l2.WritebackClean_hits::.writebacks         6537                       # number of WritebackClean hits
system.l2.WritebackClean_hits::total             6537                       # number of WritebackClean hits
system.l2.WritebackClean_accesses::.writebacks         6537                       # number of WritebackClean accesses(hits+misses)
system.l2.WritebackClean_accesses::total         6537                       # number of WritebackClean accesses(hits+misses)
system.l2.ReadExReq_hits::.cpu.data             26533                       # number of ReadExReq hits
system.l2.ReadExReq_hits::total                 26533                       # number of ReadExReq hits
system.l2.ReadExReq_misses::.cpu.data            7296                       # number of ReadExReq misses
system.l2.ReadExReq_misses::total                7296                       # number of ReadExReq misses
system.l2.ReadExReq_miss_latency::.cpu.data    707747000                       # number of ReadExReq miss cycles
system.l2.ReadExReq_miss_latency::total     707747000                       # number of ReadExReq miss cycles
system.l2.ReadExReq_accesses::.cpu.data         33829                       # number of ReadExReq accesses(hits+misses)
system.l2.ReadExReq_accesses::total             33829                       # number of ReadExReq accesses(hits+misses)
system.l2.ReadExReq_miss_rate::.cpu.data     0.215673                       # miss rate for ReadExReq accesses
system.l2.ReadExReq_miss_rate::total         0.215673                       # miss rate for ReadExReq accesses
system.l2.ReadExReq_avg_miss_latency::.cpu.data 97004.797149                       # average ReadExReq miss latency
system.l2.ReadExReq_avg_miss_latency::total 97004.797149                       # average ReadExReq miss latency
system.l2.ReadExReq_mshr_misses::.cpu.data         7296                       # number of ReadExReq MSHR misses
system.l2.ReadExReq_mshr_misses::total           7296                       # number of ReadExReq MSHR misses
system.l2.ReadExReq_mshr_miss_latency::.cpu.data    561827000                       # number of ReadExReq MSHR miss cycles
system.l2.ReadExReq_mshr_miss_latency::total    561827000                       # number of ReadExReq MSHR miss cycles
system.l2.ReadExReq_mshr_miss_rate::.cpu.data     0.215673                       # mshr miss rate for ReadExReq accesses
system.l2.ReadExReq_mshr_miss_rate::total     0.215673                       # mshr miss rate for ReadExReq accesses
system.l2.ReadExReq_avg_mshr_miss_latency::.cpu.data 77004.797149                       # average ReadExReq mshr miss latency
system.l2.ReadExReq_avg_mshr_miss_latency::total 77004.797149                       # average ReadExReq mshr miss latency
system.l2.ReadCleanReq_hits::.cpu.inst           6387                       # number of ReadCleanReq hits
system.l2.ReadCleanReq_hits::total               6387                       # number of ReadCleanReq hits
system.l2.ReadCleanReq_misses::.cpu.inst         2137                       # number of ReadCleanReq misses
system.l2.ReadCleanReq_misses::total             2137                       # number of ReadCleanReq misses
system.l2.ReadCleanReq_miss_latency::.cpu.inst    206807000                       # number of ReadCleanReq miss cycles
system.l2.ReadCleanReq_miss_latency::total    206807000                       # number of ReadCleanReq miss cycles
system.l2.ReadCleanReq_accesses::.cpu.inst         8524                       # number of ReadCleanReq accesses(hits+misses)
system.l2.ReadCleanReq_accesses::total           8524                       # number of ReadCleanReq accesses(hits+misses)
system.l2.ReadCleanReq_miss_rate::.cpu.inst     0.250704                       # miss rate for ReadCleanReq accesses
system.l2.ReadCleanReq_miss_rate::total      0.250704                       # miss rate for ReadCleanReq accesses
system.l2.ReadCleanReq_avg_miss_latency::.cpu.inst 96774.450164                       # average ReadCleanReq miss latency
system.l2.ReadCleanReq_avg_miss_latency::total 96774.450164                       # average ReadCleanReq miss latency
system.l2.ReadCleanReq_mshr_misses::.cpu.inst         2137                       # number of ReadCleanReq MSHR misses
system.l2.ReadCleanReq_mshr_misses::total         2137                       # number of ReadCleanReq MSHR misses
system.l2.ReadCleanReq_mshr_miss_latency::.cpu.inst    164067000                       # number of ReadCleanReq MSHR miss cycles
system.l2.ReadCleanReq_mshr_miss_latency::total    164067000                       # number of ReadCleanReq MSHR miss cycles
system.l2.ReadCleanReq_mshr_miss_rate::.cpu.inst     0.250704                       # mshr miss rate for ReadCleanReq accesses
system.l2.ReadCleanReq_mshr_miss_rate::total     0.250704                       # mshr miss rate for ReadCleanReq accesses
system.l2.ReadCleanReq_avg_mshr_miss_latency::.cpu.inst 76774.450164                       # average ReadCleanReq mshr miss latency
system.l2.ReadCleanReq_avg_mshr_miss_latency::total 76774.450164                       # average ReadCleanReq mshr miss latency
system.l2.ReadSharedReq_hits::.cpu.data          6883                       # number of ReadSharedReq hits
system.l2.ReadSharedReq_hits::total              6883                       # number of ReadSharedReq hits
system.l2.ReadSharedReq_misses::.cpu.data          943                       # number of ReadSharedReq misses
system.l2.ReadSharedReq_misses::total             943                       # number of ReadSharedReq misses
system.l2.ReadSharedReq_miss_latency::.cpu.data     93090000                       # number of ReadSharedReq miss cycles
system.l2.ReadSharedReq_miss_latency::total     93090000                       # number of ReadSharedReq miss cycles
system.l2.ReadSharedReq_accesses::.cpu.data         7826                       # number of ReadSharedReq accesses(hits+misses)
system.l2.ReadSharedReq_accesses::total          7826                       # number of ReadSharedReq accesses(hits+misses)
system.l2.ReadSharedReq_miss_rate::.cpu.data     0.120496                       # miss rate for ReadSharedReq accesses
system.l2.ReadSharedReq_miss_rate::total     0.120496                       # miss rate for ReadSharedReq accesses
system.l2.ReadSharedReq_avg_miss_latency::.cpu.data 98716.861082                       # average ReadSharedReq miss latency
system.l2.ReadSharedReq_avg_miss_latency::total 98716.861082                       # average ReadSharedReq miss latency
system.l2.ReadSharedReq_mshr_hits::.cpu.data            6                       # number of ReadSharedReq MSHR hits
system.l2.ReadSharedReq_mshr_hits::total            6                       # number of ReadSharedReq MSHR hits
system.l2.ReadSharedReq_mshr_misses::.cpu.data          937                       # number of ReadSharedReq MSHR misses
system.l2.ReadSharedReq_mshr_misses::total          937                       # number of ReadSharedReq MSHR misses
system.l2.ReadSharedReq_mshr_miss_latency::.cpu.data     73829000                       # number of ReadSharedReq MSHR miss cycles
system.l2.ReadSharedReq_mshr_miss_latency::total     73829000                       # number of ReadSharedReq MSHR miss cycles
system.l2.ReadSharedReq_mshr_miss_rate::.cpu.data     0.119729                       # mshr miss rate for ReadSharedReq accesses
system.l2.ReadSharedReq_mshr_miss_rate::total     0.119729                       # mshr miss rate for ReadSharedReq accesses
system.l2.ReadSharedReq_avg_mshr_miss_latency::.cpu.data 78792.956243                       # average ReadSharedReq mshr miss latency
system.l2.ReadSharedReq_avg_mshr_miss_latency::total 78792.956243                       # average ReadSharedReq mshr miss latency
system.l2.power_state.pwrStateResidencyTicks::UNDEFINED 118748325000                       # Cumulative time (in ticks) in various power states
system.l2.tags.tagsinuse                  9947.649639                       # Cycle average of tags in use
system.l2.tags.total_refs                       94097                       # Total number of references to valid blocks.
system.l2.tags.sampled_refs                     10370                       # Sample count of references to valid blocks.
system.l2.tags.avg_refs                      9.073963                       # Average number of references to valid blocks.
system.l2.tags.warmup_cycle                     87000                       # Cycle when the warmup percentage was hit.
system.l2.tags.occ_blocks::.cpu.inst      2121.626784                       # Average occupied blocks per requestor
system.l2.tags.occ_blocks::.cpu.data      7826.022856                       # Average occupied blocks per requestor
system.l2.tags.occ_percent::.cpu.inst        0.064747                       # Average percentage of cache occupancy
system.l2.tags.occ_percent::.cpu.data        0.238831                       # Average percentage of cache occupancy
system.l2.tags.occ_percent::total            0.303578                       # Average percentage of cache occupancy
system.l2.tags.occ_task_id_blocks::1024         10370                       # Occupied blocks per task id
system.l2.tags.age_task_id_blocks_1024::3            2                       # Occupied blocks per task id
system.l2.tags.age_task_id_blocks_1024::4        10368                       # Occupied blocks per task id
system.l2.tags.occ_task_id_percent::1024     0.316467                       # Percentage of cache occupancy per task id
system.l2.tags.tag_accesses                    198576                       # Number of tag accesses
system.l2.tags.data_accesses                   198576                       # Number of data accesses
system.l2.tags.power_state.pwrStateResidencyTicks::UNDEFINED 118748325000                       # Cumulative time (in ticks) in various power states
system.mem_ctrls.avgPriority_.cpu.inst::samples      2137.00                       # Average QoS priority value for accepted requests
system.mem_ctrls.avgPriority_.cpu.data::samples      8233.00                       # Average QoS priority value for accepted requests
system.mem_ctrls.priorityMinLatency      0.000000018750                       # per QoS priority minimum request to response latency (s)
system.mem_ctrls.priorityMaxLatency      0.000000579500                       # per QoS priority maximum request to response latency (s)
system.mem_ctrls.numReadWriteTurnArounds            0                       # Number of turnarounds from READ to WRITE
system.mem_ctrls.numWriteReadTurnArounds            0                       # Number of turnarounds from WRITE to READ
system.mem_ctrls.numStayReadState               51230                       # Number of times bus staying in READ state
system.mem_ctrls.numStayWriteState                  0                       # Number of times bus staying in WRITE state
system.mem_ctrls.readReqs                       10370                       # Number of read requests accepted
system.mem_ctrls.writeReqs                          0                       # Number of write requests accepted
system.mem_ctrls.readBursts                     10370                       # Number of controller read bursts, including those serviced by the write queue
system.mem_ctrls.writeBursts                        0                       # Number of controller write bursts, including those merged in the write queue
system.mem_ctrls.servicedByWrQ                      0                       # Number of controller read bursts serviced by the write queue
system.mem_ctrls.mergedWrBursts                     0                       # Number of controller write bursts merged with an existing one
system.mem_ctrls.neitherReadNorWriteReqs            0                       # Number of requests that are neither read nor write
system.mem_ctrls.avgRdQLen                       1.00                       # Average read queue length when enqueuing
system.mem_ctrls.avgWrQLen                       0.00                       # Average write queue length when enqueuing
system.mem_ctrls.numRdRetry                         0                       # Number of times read queue was full causing retry
system.mem_ctrls.numWrRetry                         0                       # Number of times write queue was full causing retry
system.mem_ctrls.readPktSize::0                     0                       # Read request sizes (log2)
system.mem_ctrls.readPktSize::1                     0                       # Read request sizes (log2)
system.mem_ctrls.readPktSize::2                     0                       # Read request sizes (log2)
system.mem_ctrls.readPktSize::3                     0                       # Read request sizes (log2)
system.mem_ctrls.readPktSize::4                     0                       # Read request sizes (log2)
system.mem_ctrls.readPktSize::5                 10370                       # Read request sizes (log2)
system.mem_ctrls.writePktSize::0                    0                       # Write request sizes (log2)
system.mem_ctrls.writePktSize::1                    0                       # Write request sizes (log2)
system.mem_ctrls.writePktSize::2                    0                       # Write request sizes (log2)
system.mem_ctrls.writePktSize::3                    0                       # Write request sizes (log2)
system.mem_ctrls.writePktSize::4                    0                       # Write request sizes (log2)
system.mem_ctrls.writePktSize::5                    0                       # Write request sizes (log2)
system.mem_ctrls.rdQLenPdf::0                    9797                       # What read queue length does an incoming req see
system.mem_ctrls.rdQLenPdf::1                     547                       # What read queue length does an incoming req see
system.mem_ctrls.rdQLenPdf::2                      26                       # What read queue length does an incoming req see
system.mem_ctrls.rdQLenPdf::3                       0                       # What read queue length does an incoming req see
[...]
system.mem_ctrls.dram.bw_read::.cpu.data      2218608                       # Total read bandwidth from this memory (bytes/s)
system.mem_ctrls.dram.bw_read::total          2794482                       # Total read bandwidth from this memory (bytes/s)
system.mem_ctrls.dram.bw_inst_read::.cpu.inst       575873                       # Instruction read bandwidth from this memory (bytes/s)
system.mem_ctrls.dram.bw_inst_read::total       575873                       # Instruction read bandwidth from this memory (bytes/s)
system.mem_ctrls.dram.bw_total::.cpu.inst       575873                       # Total bandwidth to/from this memory (bytes/s)
system.mem_ctrls.dram.bw_total::.cpu.data      2218608                       # Total bandwidth to/from this memory (bytes/s)
system.mem_ctrls.dram.bw_total::total         2794482                       # Total bandwidth to/from this memory (bytes/s)
system.mem_ctrls.dram.readBursts                10370                       # Number of DRAM read bursts
system.mem_ctrls.dram.writeBursts                   0                       # Number of DRAM write bursts
system.mem_ctrls.dram.perBankRdBursts::0          457                       # Per bank write bursts
system.mem_ctrls.dram.perBankRdBursts::1          507                       # Per bank write bursts
system.mem_ctrls.dram.perBankRdBursts::2          452                       # Per bank write bursts
system.mem_ctrls.dram.perBankRdBursts::3          740                       # Per bank write bursts
system.mem_ctrls.dram.perBankRdBursts::4          768                       # Per bank write bursts
system.mem_ctrls.dram.perBankRdBursts::5          733                       # Per bank write bursts
system.mem_ctrls.dram.perBankRdBursts::6          715                       # Per bank write bursts
system.mem_ctrls.dram.perBankRdBursts::7          763                       # Per bank write bursts
system.mem_ctrls.dram.perBankRdBursts::8          674                       # Per bank write bursts
system.mem_ctrls.dram.perBankRdBursts::9          535                       # Per bank write bursts
system.mem_ctrls.dram.perBankRdBursts::10          801                       # Per bank write bursts
system.mem_ctrls.dram.perBankRdBursts::11          557                       # Per bank write bursts
system.mem_ctrls.dram.perBankRdBursts::12          617                       # Per bank write bursts
system.mem_ctrls.dram.perBankRdBursts::13          655                       # Per bank write bursts
system.mem_ctrls.dram.perBankRdBursts::14          747                       # Per bank write bursts
system.mem_ctrls.dram.perBankRdBursts::15          649                       # Per bank write bursts
system.mem_ctrls.dram.perBankWrBursts::0            0                       # Per bank write bursts
system.mem_ctrls.dram.perBankWrBursts::1            0                       # Per bank write bursts
system.mem_ctrls.dram.perBankWrBursts::2            0                       # Per bank write bursts
system.mem_ctrls.dram.perBankWrBursts::3            0                       # Per bank write bursts
system.mem_ctrls.dram.perBankWrBursts::4            0                       # Per bank write bursts
system.mem_ctrls.dram.perBankWrBursts::5            0                       # Per bank write bursts
system.mem_ctrls.dram.perBankWrBursts::6            0                       # Per bank write bursts
system.mem_ctrls.dram.perBankWrBursts::7            0                       # Per bank write bursts
system.mem_ctrls.dram.perBankWrBursts::8            0                       # Per bank write bursts
system.mem_ctrls.dram.perBankWrBursts::9            0                       # Per bank write bursts
system.mem_ctrls.dram.perBankWrBursts::10            0                       # Per bank write bursts
system.mem_ctrls.dram.perBankWrBursts::11            0                       # Per bank write bursts
system.mem_ctrls.dram.perBankWrBursts::12            0                       # Per bank write bursts
system.mem_ctrls.dram.perBankWrBursts::13            0                       # Per bank write bursts
system.mem_ctrls.dram.perBankWrBursts::14            0                       # Per bank write bursts
system.mem_ctrls.dram.perBankWrBursts::15            0                       # Per bank write bursts
system.mem_ctrls.dram.totQLat                73263500                       # Total ticks spent queuing
system.mem_ctrls.dram.totBusLat              51850000                       # Total ticks spent in databus transfers
system.mem_ctrls.dram.totMemAccLat          267701000                       # Total ticks spent from burst creation until serviced by the DRAM
system.mem_ctrls.dram.avgQLat                 7064.95                       # Average queueing delay per DRAM burst
system.mem_ctrls.dram.avgBusLat               5000.00                       # Average bus latency per DRAM burst
system.mem_ctrls.dram.avgMemAccLat           25814.95                       # Average memory access latency per DRAM burst
system.mem_ctrls.dram.readRowHits                8368                       # Number of row buffer hits during reads
system.mem_ctrls.dram.writeRowHits                  0                       # Number of row buffer hits during writes
system.mem_ctrls.dram.readRowHitRate            80.69                       # Row buffer hit rate for reads
system.mem_ctrls.dram.writeRowHitRate             nan                       # Row buffer hit rate for writes
system.mem_ctrls.dram.bytesPerActivate::samples         2002                       # Bytes accessed per row activation
system.mem_ctrls.dram.bytesPerActivate::mean   331.508492                       # Bytes accessed per row activation
system.mem_ctrls.dram.bytesPerActivate::gmean   221.065675                       # Bytes accessed per row activation
system.mem_ctrls.dram.bytesPerActivate::stdev   307.287360                       # Bytes accessed per row activation
system.mem_ctrls.dram.bytesPerActivate::0-127          476     23.78%     23.78% # Bytes accessed per row activation
system.mem_ctrls.dram.bytesPerActivate::128-255          598     29.87%     53.65% # Bytes accessed per row activation
system.mem_ctrls.dram.bytesPerActivate::256-383          250     12.49%     66.13% # Bytes accessed per row activation
system.mem_ctrls.dram.bytesPerActivate::384-511          301     15.03%     81.17% # Bytes accessed per row activation
system.mem_ctrls.dram.bytesPerActivate::512-639           56      2.80%     83.97% # Bytes accessed per row activation
system.mem_ctrls.dram.bytesPerActivate::640-767           35      1.75%     85.71% # Bytes accessed per row activation
system.mem_ctrls.dram.bytesPerActivate::768-895           24      1.20%     86.91% # Bytes accessed per row activation
system.mem_ctrls.dram.bytesPerActivate::896-1023           15      0.75%     87.66% # Bytes accessed per row activation
system.mem_ctrls.dram.bytesPerActivate::1024-1151          247     12.34%    100.00% # Bytes accessed per row activation
system.mem_ctrls.dram.bytesPerActivate::total         2002                       # Bytes accessed per row activation
system.mem_ctrls.dram.bytesRead                663680                       # Total number of bytes read from DRAM
system.mem_ctrls.dram.bytesWritten                  0                       # Total number of bytes written to DRAM
system.mem_ctrls.dram.avgRdBW                5.588963                       # Average DRAM read bandwidth in MiBytes/s
system.mem_ctrls.dram.avgWrBW                       0                       # Average DRAM write bandwidth in MiBytes/s
system.mem_ctrls.dram.peakBW                 12800.00                       # Theoretical peak bandwidth in MiByte/s
system.mem_ctrls.dram.busUtil                    0.04                       # Data bus utilization in percentage
system.mem_ctrls.dram.busUtilRead                0.04                       # Data bus utilization in percentage for reads
system.mem_ctrls.dram.busUtilWrite               0.00                       # Data bus utilization in percentage for writes
system.mem_ctrls.dram.pageHitRate               80.69                       # Row buffer hit rate, read and write combined
system.mem_ctrls.dram.power_state.pwrStateResidencyTicks::UNDEFINED 118748325000                       # Cumulative time (in ticks) in various power states
system.mem_ctrls.dram.rank0.actEnergy         7546980                       # Energy for activate commands per rank (pJ)
system.mem_ctrls.dram.rank0.preEnergy         4011315                       # Energy for precharge commands per rank (pJ)
system.mem_ctrls.dram.rank0.readEnergy       36663900                       # Energy for read commands per rank (pJ)
system.mem_ctrls.dram.rank0.writeEnergy             0                       # Energy for write commands per rank (pJ)
system.mem_ctrls.dram.rank0.refreshEnergy 9373874640.000002                       # Energy for refresh commands per rank (pJ)
system.mem_ctrls.dram.rank0.actBackEnergy   3163402530                       # Energy for active background per rank (pJ)
system.mem_ctrls.dram.rank0.preBackEnergy  42935446560                       # Energy for precharge background per rank (pJ)
system.mem_ctrls.dram.rank0.actPowerDownEnergy            0                       # Energy for active power-down per rank (pJ)
system.mem_ctrls.dram.rank0.prePowerDownEnergy            0                       # Energy for precharge power-down per rank (pJ)
system.mem_ctrls.dram.rank0.selfRefreshEnergy            0                       # Energy for self refresh per rank (pJ)
system.mem_ctrls.dram.rank0.totalEnergy   55520945925                       # Total energy per rank (pJ)
system.mem_ctrls.dram.rank0.averagePower   467.551403                       # Core power per rank (mW)
system.mem_ctrls.dram.rank0.totalIdleTime            0                       # Total Idle time Per DRAM Rank
system.mem_ctrls.dram.rank0.pwrStateTime::IDLE 111592504500                       # Time in different power states
system.mem_ctrls.dram.rank0.pwrStateTime::REF   3965226250                       # Time in different power states
system.mem_ctrls.dram.rank0.pwrStateTime::SREF            0                       # Time in different power states
system.mem_ctrls.dram.rank0.pwrStateTime::PRE_PDN            0                       # Time in different power states
system.mem_ctrls.dram.rank0.pwrStateTime::ACT   3190594250                       # Time in different power states
system.mem_ctrls.dram.rank0.pwrStateTime::ACT_PDN            0                       # Time in different power states
system.mem_ctrls.dram.rank1.actEnergy         6747300                       # Energy for activate commands per rank (pJ)
system.mem_ctrls.dram.rank1.preEnergy         3586275                       # Energy for precharge commands per rank (pJ)
system.mem_ctrls.dram.rank1.readEnergy       37377900                       # Energy for read commands per rank (pJ)
system.mem_ctrls.dram.rank1.writeEnergy             0                       # Energy for write commands per rank (pJ)
system.mem_ctrls.dram.rank1.refreshEnergy 9373874640.000002                       # Energy for refresh commands per rank (pJ)
system.mem_ctrls.dram.rank1.actBackEnergy   3011126460                       # Energy for active background per rank (pJ)
system.mem_ctrls.dram.rank1.preBackEnergy  43063679040                       # Energy for precharge background per rank (pJ)
system.mem_ctrls.dram.rank1.actPowerDownEnergy            0                       # Energy for active power-down per rank (pJ)
system.mem_ctrls.dram.rank1.prePowerDownEnergy            0                       # Energy for precharge power-down per rank (pJ)
system.mem_ctrls.dram.rank1.selfRefreshEnergy            0                       # Energy for self refresh per rank (pJ)
system.mem_ctrls.dram.rank1.totalEnergy   55496391615                       # Total energy per rank (pJ)
system.mem_ctrls.dram.rank1.averagePower   467.344627                       # Core power per rank (mW)
system.mem_ctrls.dram.rank1.totalIdleTime            0                       # Total Idle time Per DRAM Rank
system.mem_ctrls.dram.rank1.pwrStateTime::IDLE 111927321750                       # Time in different power states
system.mem_ctrls.dram.rank1.pwrStateTime::REF   3965226250                       # Time in different power states
system.mem_ctrls.dram.rank1.pwrStateTime::SREF            0                       # Time in different power states
system.mem_ctrls.dram.rank1.pwrStateTime::PRE_PDN            0                       # Time in different power states
system.mem_ctrls.dram.rank1.pwrStateTime::ACT   2855777000                       # Time in different power states
system.mem_ctrls.dram.rank1.pwrStateTime::ACT_PDN            0                       # Time in different power states
system.mem_ctrls.power_state.pwrStateResidencyTicks::UNDEFINED 118748325000                       # Cumulative time (in ticks) in various power states
system.membus.trans_dist::ReadResp               3074                       # Transaction distribution
system.membus.trans_dist::ReadExReq              7296                       # Transaction distribution
system.membus.trans_dist::ReadExResp             7296                       # Transaction distribution
system.membus.trans_dist::ReadSharedReq          3074                       # Transaction distribution
system.membus.pkt_count_system.l2.mem_side_port::system.mem_ctrls.port        20740                       # Packet count per connected requestor and responder (bytes)
system.membus.pkt_count::total                  20740                       # Packet count per connected requestor and responder (bytes)
system.membus.pkt_size_system.l2.mem_side_port::system.mem_ctrls.port       331840                       # Cumulative packet size per connected requestor and responder (bytes)
system.membus.pkt_size::total                  331840                       # Cumulative packet size per connected requestor and responder (bytes)
system.membus.snoops                                0                       # Total snoops (count)
system.membus.snoopTraffic                          0                       # Total snoop traffic (bytes)
system.membus.snoop_fanout::samples             10370                       # Request fanout histogram
system.membus.snoop_fanout::mean                    0                       # Request fanout histogram
system.membus.snoop_fanout::stdev                   0                       # Request fanout histogram
system.membus.snoop_fanout::underflows              0      0.00%      0.00% # Request fanout histogram
system.membus.snoop_fanout::0                   10370    100.00%    100.00% # Request fanout histogram
system.membus.snoop_fanout::1                       0      0.00%    100.00% # Request fanout histogram
system.membus.snoop_fanout::overflows               0      0.00%    100.00% # Request fanout histogram
system.membus.snoop_fanout::min_value               0                       # Request fanout histogram
system.membus.snoop_fanout::max_value               0                       # Request fanout histogram
system.membus.snoop_fanout::total               10370                       # Request fanout histogram
system.membus.power_state.pwrStateResidencyTicks::UNDEFINED 118748325000                       # Cumulative time (in ticks) in various power states
system.membus.reqLayer0.occupancy            10370000                       # Layer occupancy (ticks)
system.membus.reqLayer0.utilization               0.0                       # Layer utilization (%)
system.membus.respLayer1.occupancy           34262000                       # Layer occupancy (ticks)
system.membus.respLayer1.utilization              0.0                       # Layer utilization (%)
system.tol2bus.trans_dist::ReadResp             16350                       # Transaction distribution
system.tol2bus.trans_dist::WritebackDirty        36381                       # Transaction distribution
system.tol2bus.trans_dist::WritebackClean         7064                       # Transaction distribution
system.tol2bus.trans_dist::CleanEvict            1178                       # Transaction distribution
system.tol2bus.trans_dist::ReadExReq            33829                       # Transaction distribution
system.tol2bus.trans_dist::ReadExResp           33829                       # Transaction distribution
system.tol2bus.trans_dist::ReadCleanReq          8524                       # Transaction distribution
system.tol2bus.trans_dist::ReadSharedReq         7826                       # Transaction distribution
system.tol2bus.pkt_count_system.cpu.icache.mem_side_port::system.l2.cpu_side_port        24112                       # Packet count per connected requestor and responder (bytes)
system.tol2bus.pkt_count_system.cpu.dcache.mem_side_port::system.l2.cpu_side_port       120869                       # Packet count per connected requestor and responder (bytes)
system.tol2bus.pkt_count::total                144981                       # Packet count per connected requestor and responder (bytes)
system.tol2bus.pkt_size_system.cpu.icache.mem_side_port::system.l2.cpu_side_port       498816                       # Cumulative packet size per connected requestor and responder (bytes)
system.tol2bus.pkt_size_system.cpu.dcache.mem_side_port::system.l2.cpu_side_port      2497152                       # Cumulative packet size per connected requestor and responder (bytes)
system.tol2bus.pkt_size::total                2995968                       # Cumulative packet size per connected requestor and responder (bytes)
system.tol2bus.snoops                               0                       # Total snoops (count)
system.tol2bus.snoopTraffic                         0                       # Total snoop traffic (bytes)
system.tol2bus.snoop_fanout::samples            50179                       # Request fanout histogram
system.tol2bus.snoop_fanout::mean            0.014269                       # Request fanout histogram
system.tol2bus.snoop_fanout::stdev           0.118598                       # Request fanout histogram
system.tol2bus.snoop_fanout::underflows             0      0.00%      0.00% # Request fanout histogram
system.tol2bus.snoop_fanout::0                  49463     98.57%     98.57% # Request fanout histogram
system.tol2bus.snoop_fanout::1                    716      1.43%    100.00% # Request fanout histogram
system.tol2bus.snoop_fanout::2                      0      0.00%    100.00% # Request fanout histogram
system.tol2bus.snoop_fanout::overflows              0      0.00%    100.00% # Request fanout histogram
system.tol2bus.snoop_fanout::min_value              0                       # Request fanout histogram
system.tol2bus.snoop_fanout::max_value              1                       # Request fanout histogram
system.tol2bus.snoop_fanout::total              50179                       # Request fanout histogram
system.tol2bus.power_state.pwrStateResidencyTicks::UNDEFINED 118748325000                       # Cumulative time (in ticks) in various power states
system.tol2bus.reqLayer0.occupancy          138247000                       # Layer occupancy (ticks)
system.tol2bus.reqLayer0.utilization              0.1                       # Layer utilization (%)
system.tol2bus.respLayer0.occupancy          17048000                       # Layer occupancy (ticks)
system.tol2bus.respLayer0.utilization             0.0                       # Layer utilization (%)
system.tol2bus.respLayer1.occupancy          83315994                       # Layer occupancy (ticks)
system.tol2bus.respLayer1.utilization             0.1                       # Layer utilization (%)
system.voltage_domain.voltage                       1                       # Voltage in Volts

---------- End Simulation Statistics   ----------
